# File generated by Flopy version 3.10.0.dev2 on 05/09/2025 at 15:28:34.
BEGIN options
  SAVE_SPECIFIC_DISCHARGE
  K33OVERK
END options

BEGIN griddata
  icelltype
    CONSTANT  0
  k  LAYERED
    CONSTANT      60.00000000
    CONSTANT      60.00000000
    CONSTANT     520.00000000
    CONSTANT     520.00000000
  k33
    CONSTANT       0.10000000
END griddata

