# File generated by Flopy version 3.10.0.dev2 on 05/09/2025 at 15:28:34.
BEGIN options
END options

BEGIN timing
  TDIS6  ex-gwt-mt3dms-p10.tdis
END timing

BEGIN models
  gwf6  gwf-p10-mf6.nam  gwf-p10-mf6
  gwt6  gwt-p10-mf6.nam  gwt-p10-mf6
END models

BEGIN exchanges
  GWF6-GWT6  p10-mf6.gwfgwt  gwf-p10-mf6  gwt-p10-mf6
END exchanges

BEGIN solutiongroup  1
  ims6  gwf-p10-mf6.ims  gwf-p10-mf6
  ims6  gwt-p10-mf6.ims  gwt-p10-mf6
END solutiongroup  1

