# File generated by Flopy version 3.10.0.dev2 on 05/09/2025 at 15:27:44.
BEGIN options
END options

BEGIN dimensions
  MAXBOUND  10
END dimensions

BEGIN period  1
  1 18783  8.64000000E+05
  1 18784  8.64000000E+05
  1 18785  8.64000000E+05
  1 18786  8.64000000E+05
  1 18787  8.64000000E+05
  1 18788  8.64000000E+05
  1 18789  8.64000000E+05
  1 18790  8.64000000E+05
  1 18791  8.64000000E+05
END period  1

BEGIN period  2
  1 18783  1.72800000E+06
  1 18784  1.72800000E+06
  1 18785  1.72800000E+06
  1 18786  1.72800000E+06
  1 18787  1.72800000E+06
  1 18788  1.72800000E+06
  1 18789  1.72800000E+06
  1 18790  1.72800000E+06
  1 18791  1.72800000E+06
END period  2

BEGIN period  3
  1 18783  2.59200000E+06
  1 18784  2.59200000E+06
  1 18785  2.59200000E+06
  1 18786  2.59200000E+06
  1 18787  2.59200000E+06
  1 18788  2.59200000E+06
  1 18789  2.59200000E+06
  1 18790  2.59200000E+06
  1 18791  2.59200000E+06
END period  3

BEGIN period  4
  1 18783  3.45600000E+06
  1 18784  3.45600000E+06
  1 18785  3.45600000E+06
  1 18786  3.45600000E+06
  1 18787  3.45600000E+06
  1 18788  3.45600000E+06
  1 18789  3.45600000E+06
  1 18790  3.45600000E+06
  1 18791  3.45600000E+06
END period  4

BEGIN period  5
  1 18783  4.32000000E+06
  1 18784  4.32000000E+06
  1 18785  4.32000000E+06
  1 18786  4.32000000E+06
  1 18787  4.32000000E+06
  1 18788  4.32000000E+06
  1 18789  4.32000000E+06
  1 18790  4.32000000E+06
  1 18791  4.32000000E+06
END period  5

BEGIN period  6
  1 18783  5.18400000E+06
  1 18784  5.18400000E+06
  1 18785  5.18400000E+06
  1 18786  5.18400000E+06
  1 18787  5.18400000E+06
  1 18788  5.18400000E+06
  1 18789  5.18400000E+06
  1 18790  5.18400000E+06
  1 18791  5.18400000E+06
END period  6

BEGIN period  7
  1 18783  6.04800000E+06
  1 18784  6.04800000E+06
  1 18785  6.04800000E+06
  1 18786  6.04800000E+06
  1 18787  6.04800000E+06
  1 18788  6.04800000E+06
  1 18789  6.04800000E+06
  1 18790  6.04800000E+06
  1 18791  6.04800000E+06
END period  7

BEGIN period  8
  1 18783  6.91200000E+06
  1 18784  6.91200000E+06
  1 18785  6.91200000E+06
  1 18786  6.91200000E+06
  1 18787  6.91200000E+06
  1 18788  6.91200000E+06
  1 18789  6.91200000E+06
  1 18790  6.91200000E+06
  1 18791  6.91200000E+06
END period  8

BEGIN period  9
  1 18783  7.77600000E+06
  1 18784  7.77600000E+06
  1 18785  7.77600000E+06
  1 18786  7.77600000E+06
  1 18787  7.77600000E+06
  1 18788  7.77600000E+06
  1 18789  7.77600000E+06
  1 18790  7.77600000E+06
  1 18791  7.77600000E+06
END period  9

BEGIN period  10
  1 18783  8.64000000E+06
  1 18784  8.64000000E+06
  1 18785  8.64000000E+06
  1 18786  8.64000000E+06
  1 18787  8.64000000E+06
  1 18788  8.64000000E+06
  1 18789  8.64000000E+06
  1 18790  8.64000000E+06
  1 18791  8.64000000E+06
END period  10

