# File generated by Flopy version 3.10.0.dev2 on 05/09/2025 at 15:28:10.
BEGIN options
END options

BEGIN dimensions
  MAXBOUND  200
END dimensions

BEGIN period  1
  1 1 1 1.00000000E-02
  1 1 51 -1.00000000E-02
  1 2 1 1.00000000E-02
  1 2 51 -1.00000000E-02
  1 3 1 1.00000000E-02
  1 3 51 -1.00000000E-02
  1 4 1 1.00000000E-02
  1 4 51 -1.00000000E-02
  1 5 1 1.00000000E-02
  1 5 51 -1.00000000E-02
  1 6 1 1.00000000E-02
  1 6 51 -1.00000000E-02
  1 7 1 1.00000000E-02
  1 7 51 -1.00000000E-02
  1 8 1 1.00000000E-02
  1 8 51 -1.00000000E-02
  1 9 1 1.00000000E-02
  1 9 51 -1.00000000E-02
  1 10 1 1.00000000E-02
  1 10 51 -1.00000000E-02
  2 1 1 1.00000000E-02
  2 1 51 -1.00000000E-02
  2 2 1 1.00000000E-02
  2 2 51 -1.00000000E-02
  2 3 1 1.00000000E-02
  2 3 51 -1.00000000E-02
  2 4 1 1.00000000E-02
  2 4 51 -1.00000000E-02
  2 5 1 1.00000000E-02
  2 5 51 -1.00000000E-02
  2 6 1 1.00000000E-02
  2 6 51 -1.00000000E-02
  2 7 1 1.00000000E-02
  2 7 51 -1.00000000E-02
  2 8 1 1.00000000E-02
  2 8 51 -1.00000000E-02
  2 9 1 1.00000000E-02
  2 9 51 -1.00000000E-02
  2 10 1 1.00000000E-02
  2 10 51 -1.00000000E-02
  3 1 1 1.00000000E-02
  3 1 51 -1.00000000E-02
  3 2 1 1.00000000E-02
  3 2 51 -1.00000000E-02
  3 3 1 1.00000000E-02
  3 3 51 -1.00000000E-02
  3 4 1 1.00000000E-02
  3 4 51 -1.00000000E-02
  3 5 1 1.00000000E-02
  3 5 51 -1.00000000E-02
  3 6 1 1.00000000E-02
  3 6 51 -1.00000000E-02
  3 7 1 1.00000000E-02
  3 7 51 -1.00000000E-02
  3 8 1 1.00000000E-02
  3 8 51 -1.00000000E-02
  3 9 1 1.00000000E-02
  3 9 51 -1.00000000E-02
  3 10 1 1.00000000E-02
  3 10 51 -1.00000000E-02
  4 1 1 1.00000000E-02
  4 1 51 -1.00000000E-02
  4 2 1 1.00000000E-02
  4 2 51 -1.00000000E-02
  4 3 1 1.00000000E-02
  4 3 51 -1.00000000E-02
  4 4 1 1.00000000E-02
  4 4 51 -1.00000000E-02
  4 5 1 1.00000000E-02
  4 5 51 -1.00000000E-02
  4 6 1 1.00000000E-02
  4 6 51 -1.00000000E-02
  4 7 1 1.00000000E-02
  4 7 51 -1.00000000E-02
  4 8 1 1.00000000E-02
  4 8 51 -1.00000000E-02
  4 9 1 1.00000000E-02
  4 9 51 -1.00000000E-02
  4 10 1 1.00000000E-02
  4 10 51 -1.00000000E-02
  5 1 1 1.00000000E-02
  5 1 51 -1.00000000E-02
  5 2 1 1.00000000E-02
  5 2 51 -1.00000000E-02
  5 3 1 1.00000000E-02
  5 3 51 -1.00000000E-02
  5 4 1 1.00000000E-02
  5 4 51 -1.00000000E-02
  5 5 1 1.00000000E-02
  5 5 51 -1.00000000E-02
  5 6 1 1.00000000E-02
  5 6 51 -1.00000000E-02
  5 7 1 1.00000000E-02
  5 7 51 -1.00000000E-02
  5 8 1 1.00000000E-02
  5 8 51 -1.00000000E-02
  5 9 1 1.00000000E-02
  5 9 51 -1.00000000E-02
  5 10 1 1.00000000E-02
  5 10 51 -1.00000000E-02
  6 1 1 1.00000000E-02
  6 1 51 -1.00000000E-02
  6 2 1 1.00000000E-02
  6 2 51 -1.00000000E-02
  6 3 1 1.00000000E-02
  6 3 51 -1.00000000E-02
  6 4 1 1.00000000E-02
  6 4 51 -1.00000000E-02
  6 5 1 1.00000000E-02
  6 5 51 -1.00000000E-02
  6 6 1 1.00000000E-02
  6 6 51 -1.00000000E-02
  6 7 1 1.00000000E-02
  6 7 51 -1.00000000E-02
  6 8 1 1.00000000E-02
  6 8 51 -1.00000000E-02
  6 9 1 1.00000000E-02
  6 9 51 -1.00000000E-02
  6 10 1 1.00000000E-02
  6 10 51 -1.00000000E-02
  7 1 1 1.00000000E-02
  7 1 51 -1.00000000E-02
  7 2 1 1.00000000E-02
  7 2 51 -1.00000000E-02
  7 3 1 1.00000000E-02
  7 3 51 -1.00000000E-02
  7 4 1 1.00000000E-02
  7 4 51 -1.00000000E-02
  7 5 1 1.00000000E-02
  7 5 51 -1.00000000E-02
  7 6 1 1.00000000E-02
  7 6 51 -1.00000000E-02
  7 7 1 1.00000000E-02
  7 7 51 -1.00000000E-02
  7 8 1 1.00000000E-02
  7 8 51 -1.00000000E-02
  7 9 1 1.00000000E-02
  7 9 51 -1.00000000E-02
  7 10 1 1.00000000E-02
  7 10 51 -1.00000000E-02
  8 1 1 1.00000000E-02
  8 1 51 -1.00000000E-02
  8 2 1 1.00000000E-02
  8 2 51 -1.00000000E-02
  8 3 1 1.00000000E-02
  8 3 51 -1.00000000E-02
  8 4 1 1.00000000E-02
  8 4 51 -1.00000000E-02
  8 5 1 1.00000000E-02
  8 5 51 -1.00000000E-02
  8 6 1 1.00000000E-02
  8 6 51 -1.00000000E-02
  8 7 1 1.00000000E-02
  8 7 51 -1.00000000E-02
  8 8 1 1.00000000E-02
  8 8 51 -1.00000000E-02
  8 9 1 1.00000000E-02
  8 9 51 -1.00000000E-02
  8 10 1 1.00000000E-02
  8 10 51 -1.00000000E-02
  9 1 1 1.00000000E-02
  9 1 51 -1.00000000E-02
  9 2 1 1.00000000E-02
  9 2 51 -1.00000000E-02
  9 3 1 1.00000000E-02
  9 3 51 -1.00000000E-02
  9 4 1 1.00000000E-02
  9 4 51 -1.00000000E-02
  9 5 1 1.00000000E-02
  9 5 51 -1.00000000E-02
  9 6 1 1.00000000E-02
  9 6 51 -1.00000000E-02
  9 7 1 1.00000000E-02
  9 7 51 -1.00000000E-02
  9 8 1 1.00000000E-02
  9 8 51 -1.00000000E-02
  9 9 1 1.00000000E-02
  9 9 51 -1.00000000E-02
  9 10 1 1.00000000E-02
  9 10 51 -1.00000000E-02
  10 1 1 1.00000000E-02
  10 1 51 -1.00000000E-02
  10 2 1 1.00000000E-02
  10 2 51 -1.00000000E-02
  10 3 1 1.00000000E-02
  10 3 51 -1.00000000E-02
  10 4 1 1.00000000E-02
  10 4 51 -1.00000000E-02
  10 5 1 1.00000000E-02
  10 5 51 -1.00000000E-02
  10 6 1 1.00000000E-02
  10 6 51 -1.00000000E-02
  10 7 1 1.00000000E-02
  10 7 51 -1.00000000E-02
  10 8 1 1.00000000E-02
  10 8 51 -1.00000000E-02
  10 9 1 1.00000000E-02
  10 9 51 -1.00000000E-02
  10 10 1 1.00000000E-02
  10 10 51 -1.00000000E-02
END period  1

