# File generated by Flopy version 3.10.0.dev2 on 05/09/2025 at 15:28:10.
BEGIN options
END options

BEGIN griddata
  strt
    CONSTANT       0.00000000
END griddata

