# File generated by Flopy version 3.10.0.dev2 on 05/09/2025 at 15:28:10.
BEGIN options
  SAVE_FLOWS
END options

BEGIN packages
  DIS6  ex-gwf-whirl.dis  dis
  NPF6  ex-gwf-whirl.npf  npf
  IC6  ex-gwf-whirl.ic  ic
  WEL6  ex-gwf-whirl.wel  wel
  OC6  ex-gwf-whirl.oc  oc
END packages

