# File generated by Flopy version 3.10.0.dev2 on 05/09/2025 at 15:29:05.
BEGIN options
  BUDGET  FILEOUT  gwf-uzt-2d-mf6.bud
  HEAD  FILEOUT  gwf-uzt-2d-mf6.hds
  HEAD  PRINT_FORMAT  COLUMNS  10  WIDTH  15  DIGITS  6  GENERAL
END options

BEGIN period  1
  SAVE  HEAD  ALL
  SAVE  BUDGET  ALL
  PRINT  HEAD  LAST
  PRINT  BUDGET  ALL
END period  1

