# File generated by Flopy version 3.10.0.dev2 on 05/09/2025 at 15:29:05.
BEGIN options
  SAVE_FLOWS
  NEWTON
END options

BEGIN packages
  DIS6  gwf-uzt-2d-mf6.dis  dis
  IC6  gwf-uzt-2d-mf6.ic  ic
  NPF6  gwf-uzt-2d-mf6.npf  npf
  STO6  gwf-uzt-2d-mf6.sto  sto
  CHD6  gwf-uzt-2d-mf6.chd  chd-1
  UZF6  gwf-uzt-2d-mf6.uzf  uzf-1
  OC6  gwf-uzt-2d-mf6.oc  oc
END packages

