# File generated by Flopy version 3.10.0.dev2 on 05/09/2025 at 15:29:05.
BEGIN options
  LENGTH_UNITS  meters
END options

BEGIN dimensions
  NLAY  20
  NROW  1
  NCOL  40
END dimensions

BEGIN griddata
  delr
    CONSTANT       0.25000000
  delc
    CONSTANT       0.25000000
  top
    CONSTANT       5.00000000
  botm  LAYERED
    CONSTANT       4.75000000
    CONSTANT       4.50000000
    CONSTANT       4.25000000
    CONSTANT       4.00000000
    CONSTANT       3.75000000
    CONSTANT       3.50000000
    CONSTANT       3.25000000
    CONSTANT       3.00000000
    CONSTANT       2.75000000
    CONSTANT       2.50000000
    CONSTANT       2.25000000
    CONSTANT       2.00000000
    CONSTANT       1.75000000
    CONSTANT       1.50000000
    CONSTANT       1.25000000
    CONSTANT       1.00000000
    CONSTANT       0.75000000
    CONSTANT       0.50000000
    CONSTANT       0.25000000
    CONSTANT       0.00000000
  idomain  LAYERED
    INTERNAL  FACTOR  1
      0  1  1  1  1  1  1  1  1  1  1  1  1  1  1  1  1  1  1  1  1  1  1  1  1  1  1  1  1  1  1  1  1  1  1  1  1  1  1  0
    INTERNAL  FACTOR  1
      0  1  1  1  1  1  1  1  1  1  1  1  1  1  1  1  1  1  1  1  1  1  1  1  1  1  1  1  1  1  1  1  1  1  1  1  1  1  1  0
    INTERNAL  FACTOR  1
      0  1  1  1  1  1  1  1  1  1  1  1  1  1  1  1  1  1  1  1  1  1  1  1  1  1  1  1  1  1  1  1  1  1  1  1  1  1  1  0
    INTERNAL  FACTOR  1
      0  1  1  1  1  1  1  1  1  1  1  1  1  1  1  1  1  1  1  1  1  1  1  1  1  1  1  1  1  1  1  1  1  1  1  1  1  1  1  0
    INTERNAL  FACTOR  1
      0  1  1  1  1  1  1  1  1  1  1  1  1  1  1  1  1  1  1  1  1  1  1  1  1  1  1  1  1  1  1  1  1  1  1  1  1  1  1  0
    INTERNAL  FACTOR  1
      0  1  1  1  1  1  1  1  1  1  1  1  1  1  1  1  1  1  1  1  1  1  1  1  1  1  1  1  1  1  1  1  1  1  1  1  1  1  1  0
    INTERNAL  FACTOR  1
      0  1  1  1  1  1  1  1  1  1  1  1  1  1  1  1  1  1  1  1  1  1  1  1  1  1  1  1  1  1  1  1  1  1  1  1  1  1  1  0
    INTERNAL  FACTOR  1
      0  1  1  1  1  1  1  1  1  1  1  1  1  1  1  1  1  1  1  1  1  1  1  1  1  1  1  1  1  1  1  1  1  1  1  1  1  1  1  0
    INTERNAL  FACTOR  1
      0  1  1  1  1  1  1  1  1  1  1  1  1  1  1  1  1  1  1  1  1  1  1  1  1  1  1  1  1  1  1  1  1  1  1  1  1  1  1  0
    INTERNAL  FACTOR  1
      0  1  1  1  1  1  1  1  1  1  1  1  1  1  1  1  1  1  1  1  1  1  1  1  1  1  1  1  1  1  1  1  1  1  1  1  1  1  1  0
    INTERNAL  FACTOR  1
      0  1  1  1  1  1  1  1  1  1  1  1  1  1  1  1  1  1  1  1  1  1  1  1  1  1  1  1  1  1  1  1  1  1  1  1  1  1  1  0
    INTERNAL  FACTOR  1
      0  1  1  1  1  1  1  1  1  1  1  1  1  1  1  1  1  1  1  1  1  1  1  1  1  1  1  1  1  1  1  1  1  1  1  1  1  1  1  0
    INTERNAL  FACTOR  1
      0  1  1  1  1  1  1  1  1  1  1  1  1  1  1  1  1  1  1  1  1  1  1  1  1  1  1  1  1  1  1  1  1  1  1  1  1  1  1  0
    INTERNAL  FACTOR  1
      1  1  1  1  1  1  1  1  1  1  1  1  1  1  1  1  1  1  1  1  1  1  1  1  1  1  1  1  1  1  1  1  1  1  1  1  1  1  1  1
    INTERNAL  FACTOR  1
      1  1  1  1  1  1  1  1  1  1  1  1  1  1  1  1  1  1  1  1  1  1  1  1  1  1  1  1  1  1  1  1  1  1  1  1  1  1  1  1
    INTERNAL  FACTOR  1
      1  1  1  1  1  1  1  1  1  1  1  1  1  1  1  1  1  1  1  1  1  1  1  1  1  1  1  1  1  1  1  1  1  1  1  1  1  1  1  1
    INTERNAL  FACTOR  1
      1  1  1  1  1  1  1  1  1  1  1  1  1  1  1  1  1  1  1  1  1  1  1  1  1  1  1  1  1  1  1  1  1  1  1  1  1  1  1  1
    INTERNAL  FACTOR  1
      1  1  1  1  1  1  1  1  1  1  1  1  1  1  1  1  1  1  1  1  1  1  1  1  1  1  1  1  1  1  1  1  1  1  1  1  1  1  1  1
    INTERNAL  FACTOR  1
      1  1  1  1  1  1  1  1  1  1  1  1  1  1  1  1  1  1  1  1  1  1  1  1  1  1  1  1  1  1  1  1  1  1  1  1  1  1  1  1
    INTERNAL  FACTOR  1
      1  1  1  1  1  1  1  1  1  1  1  1  1  1  1  1  1  1  1  1  1  1  1  1  1  1  1  1  1  1  1  1  1  1  1  1  1  1  1  1
END griddata

