# File generated by Flopy version 3.10.0.dev2 on 05/09/2025 at 15:29:05.
BEGIN options
END options

BEGIN griddata
  iconvert
    CONSTANT  1
  ss
    CONSTANT  1.00000000E-05
  sy
    CONSTANT       0.35000000
END griddata

