# File generated by Flopy version 3.10.0.dev2 on 05/09/2025 at 15:29:03.
BEGIN options
END options

BEGIN griddata
  porosity  LAYERED
    INTERNAL  FACTOR  1.0
           0.20000000       0.20000000       0.20000000       0.20000000       0.20000000       0.20000000       0.20000000       0.20000000       0.20000000       0.20000000       0.20000000       0.20000000       0.20000000       0.20000000       0.20000000       0.20000000       0.20000000       0.20000000       0.20000000       0.20000000
           0.20000000       0.20000000       0.20000000       0.20000000       0.20000000       0.20000000       0.20000000       0.20000000       0.20000000       0.20000000       0.20000000       0.20000000       0.20000000       0.20000000       0.20000000       0.20000000       0.20000000       0.20000000       0.20000000       0.20000000
           0.20000000       0.20000000       0.20000000       0.40000000       0.40000000       0.40000000       0.40000000       0.40000000       0.40000000       0.40000000       0.40000000       0.40000000       0.40000000       0.40000000       0.40000000       0.40000000       0.40000000       0.40000000       0.40000000       0.40000000
           0.40000000       0.40000000       0.40000000       0.40000000       0.40000000       0.40000000       0.40000000       0.40000000       0.40000000       0.40000000       0.40000000       0.40000000       0.40000000       0.40000000       0.40000000       0.40000000       0.40000000       0.40000000       0.40000000       0.40000000
           0.40000000       0.40000000       0.40000000       0.40000000       0.40000000       0.40000000       0.40000000       0.40000000       0.40000000       0.40000000       0.40000000       0.40000000       0.20000000       0.20000000       0.20000000       0.20000000       0.20000000       0.20000000       0.20000000       0.20000000
           0.20000000       0.20000000       0.20000000       0.20000000       0.20000000       0.20000000       0.20000000       0.20000000       0.20000000       0.20000000       0.20000000       0.20000000       0.20000000       0.20000000       0.20000000       0.20000000       0.20000000       0.20000000       0.20000000       0.20000000
           0.20000000       0.20000000       0.20000000       0.20000000       0.20000000       0.20000000       0.20000000       0.20000000       0.20000000       0.20000000       0.20000000       0.20000000       0.20000000       0.20000000       0.20000000       0.20000000       0.20000000       0.20000000       0.20000000       0.20000000
           0.20000000       0.20000000       0.20000000       0.20000000       0.20000000       0.20000000       0.20000000       0.20000000       0.20000000       0.20000000       0.20000000       0.20000000       0.20000000       0.20000000       0.20000000       0.20000000       0.20000000       0.20000000       0.20000000       0.20000000
           0.20000000       0.20000000       0.20000000       0.20000000       0.20000000       0.20000000       0.20000000       0.20000000       0.20000000       0.20000000       0.20000000       0.20000000       0.20000000       0.20000000       0.20000000       0.20000000       0.20000000       0.20000000       0.20000000       0.20000000
           0.20000000       0.20000000       0.20000000       0.20000000       0.20000000       0.20000000       0.20000000       0.20000000       0.20000000       0.20000000       0.20000000       0.20000000       0.20000000       0.20000000       0.20000000       0.20000000       0.20000000       0.20000000       0.20000000       0.20000000
           0.20000000       0.20000000       0.20000000       0.20000000       0.20000000       0.20000000       0.20000000       0.20000000       0.20000000       0.20000000       0.20000000       0.20000000       0.20000000       0.20000000       0.20000000       0.20000000       0.20000000       0.20000000       0.20000000       0.20000000
           0.20000000       0.20000000       0.20000000       0.20000000       0.20000000       0.20000000       0.20000000       0.20000000       0.20000000       0.20000000       0.20000000       0.20000000       0.20000000       0.20000000       0.20000000       0.20000000       0.20000000       0.20000000       0.20000000       0.20000000
           0.20000000       0.20000000       0.20000000       0.20000000       0.20000000       0.20000000       0.20000000       0.20000000       0.20000000       0.20000000       0.20000000       0.20000000       0.20000000       0.20000000       0.20000000       0.20000000       0.20000000       0.20000000       0.20000000       0.20000000
           0.20000000       0.20000000       0.20000000       0.20000000       0.20000000       0.20000000       0.20000000       0.20000000       0.20000000       0.20000000       0.20000000       0.20000000       0.20000000       0.20000000       0.20000000       0.20000000       0.20000000       0.20000000       0.20000000       0.20000000
           0.20000000       0.20000000       0.20000000       0.20000000       0.20000000       0.20000000       0.20000000       0.20000000       0.20000000       0.20000000       0.20000000       0.20000000       0.20000000       0.20000000       0.20000000       0.20000000       0.20000000       0.20000000       0.20000000       0.20000000
           0.20000000       0.20000000       0.20000000       0.20000000       0.20000000       0.20000000       0.20000000       0.20000000       0.20000000       0.20000000       0.20000000       0.20000000       0.20000000       0.20000000       0.20000000       0.20000000       0.20000000       0.20000000       0.20000000       0.20000000
           0.20000000       0.20000000       0.20000000       0.20000000       0.20000000       0.20000000       0.20000000       0.20000000       0.20000000       0.20000000       0.20000000       0.20000000       0.20000000       0.20000000       0.20000000       0.20000000       0.20000000       0.20000000       0.20000000       0.20000000
           0.20000000       0.20000000       0.20000000       0.20000000       0.20000000       0.20000000       0.20000000       0.20000000       0.20000000       0.20000000       0.20000000       0.20000000       0.20000000       0.20000000       0.20000000       0.20000000       0.20000000       0.20000000       0.20000000       0.20000000
           0.20000000       0.20000000       0.20000000       0.20000000       0.20000000       0.20000000       0.20000000       0.20000000       0.20000000       0.20000000       0.20000000       0.20000000       0.20000000       0.20000000       0.20000000       0.20000000       0.20000000       0.20000000       0.20000000       0.20000000
           0.20000000       0.20000000       0.20000000       0.20000000       0.20000000       0.20000000       0.20000000       0.20000000       0.20000000       0.20000000       0.20000000       0.20000000       0.20000000       0.20000000       0.20000000       0.20000000       0.20000000       0.20000000       0.20000000       0.20000000
           0.20000000       0.20000000       0.20000000       0.20000000       0.20000000       0.20000000       0.20000000       0.20000000       0.20000000       0.20000000       0.20000000       0.20000000       0.20000000       0.20000000       0.40000000       0.40000000       0.40000000       0.40000000       0.40000000       0.40000000
           0.40000000       0.40000000       0.40000000       0.40000000       0.40000000       0.40000000       0.40000000       0.40000000       0.40000000       0.40000000       0.40000000       0.40000000       0.40000000       0.40000000       0.40000000       0.40000000       0.40000000       0.40000000       0.40000000       0.40000000
           0.40000000       0.40000000       0.40000000       0.40000000       0.40000000       0.40000000       0.40000000       0.40000000       0.40000000       0.40000000       0.40000000       0.40000000       0.40000000       0.40000000       0.40000000       0.40000000       0.40000000       0.40000000       0.40000000       0.40000000
           0.40000000       0.40000000       0.40000000       0.40000000       0.40000000       0.40000000       0.40000000       0.40000000       0.40000000       0.40000000       0.40000000       0.40000000       0.40000000       0.40000000       0.40000000       0.40000000       0.40000000       0.40000000       0.40000000       0.40000000
           0.40000000       0.40000000       0.40000000       0.40000000       0.40000000       0.40000000       0.40000000       0.40000000       0.40000000       0.40000000       0.40000000       0.40000000       0.40000000       0.40000000       0.40000000       0.40000000       0.40000000       0.40000000       0.40000000       0.40000000
           0.40000000       0.40000000       0.40000000       0.40000000       0.40000000       0.40000000       0.40000000       0.40000000       0.40000000       0.40000000       0.40000000       0.40000000       0.40000000       0.40000000       0.40000000       0.40000000       0.40000000       0.40000000       0.40000000       0.40000000
           0.40000000       0.40000000       0.40000000       0.40000000       0.40000000       0.40000000       0.40000000       0.40000000       0.40000000       0.40000000       0.40000000       0.40000000       0.40000000       0.40000000       0.40000000       0.40000000       0.40000000       0.40000000       0.40000000       0.40000000
           0.40000000       0.40000000       0.40000000       0.40000000       0.40000000       0.40000000       0.40000000       0.40000000       0.40000000       0.40000000       0.40000000       0.40000000       0.40000000       0.40000000       0.40000000       0.40000000       0.40000000       0.40000000       0.40000000       0.40000000
           0.40000000       0.40000000       0.40000000       0.40000000       0.40000000       0.40000000       0.40000000       0.40000000       0.40000000       0.40000000       0.40000000       0.40000000       0.40000000       0.40000000       0.40000000       0.40000000       0.40000000       0.40000000       0.40000000       0.40000000
           0.40000000       0.40000000       0.40000000       0.40000000       0.40000000       0.40000000       0.40000000       0.40000000       0.40000000       0.40000000       0.40000000       0.40000000       0.40000000       0.40000000       0.40000000       0.40000000       0.40000000       0.40000000       0.40000000       0.40000000
           0.40000000       0.40000000       0.40000000       0.40000000       0.40000000       0.40000000       0.40000000       0.40000000       0.40000000       0.40000000       0.40000000       0.40000000       0.40000000       0.40000000       0.40000000       0.40000000       0.40000000       0.40000000       0.40000000       0.40000000
           0.40000000       0.40000000       0.40000000       0.40000000       0.40000000       0.40000000       0.40000000       0.40000000       0.40000000       0.40000000       0.40000000       0.40000000       0.40000000       0.40000000       0.40000000       0.40000000       0.40000000       0.40000000       0.40000000       0.40000000
           0.40000000       0.40000000       0.40000000       0.40000000       0.40000000       0.40000000       0.40000000       0.40000000       0.40000000       0.40000000       0.40000000       0.40000000       0.40000000       0.40000000       0.40000000       0.40000000       0.40000000       0.40000000       0.40000000       0.40000000
           0.40000000       0.20000000       0.20000000       0.20000000       0.20000000       0.20000000       0.20000000       0.20000000       0.20000000       0.20000000       0.20000000       0.20000000       0.20000000       0.20000000       0.20000000       0.20000000       0.20000000       0.20000000       0.20000000       0.20000000
           0.20000000       0.20000000       0.20000000       0.20000000       0.20000000       0.20000000       0.20000000       0.20000000       0.20000000       0.20000000       0.20000000       0.20000000       0.20000000       0.20000000       0.20000000       0.20000000       0.20000000       0.20000000       0.20000000       0.20000000
           0.20000000       0.20000000       0.20000000       0.20000000       0.20000000       0.20000000       0.20000000       0.20000000       0.20000000       0.20000000       0.20000000       0.20000000       0.20000000       0.20000000       0.20000000       0.20000000       0.20000000       0.20000000       0.20000000       0.20000000
           0.20000000       0.20000000       0.20000000       0.20000000       0.20000000       0.20000000       0.20000000       0.20000000       0.20000000       0.20000000       0.20000000       0.20000000       0.20000000       0.20000000       0.20000000       0.20000000       0.20000000       0.20000000       0.20000000       0.20000000
           0.20000000       0.20000000       0.20000000       0.20000000       0.20000000       0.20000000       0.20000000       0.20000000       0.20000000       0.20000000       0.20000000       0.20000000       0.20000000       0.20000000       0.20000000       0.20000000       0.20000000       0.20000000       0.20000000       0.20000000
           0.20000000       0.20000000       0.20000000       0.20000000       0.20000000       0.20000000       0.20000000       0.20000000       0.20000000       0.20000000       0.20000000       0.20000000       0.20000000       0.20000000       0.20000000       0.20000000       0.20000000       0.20000000       0.20000000       0.20000000
           0.20000000       0.20000000       0.20000000       0.20000000       0.20000000       0.20000000       0.20000000       0.20000000       0.20000000       0.20000000       0.20000000       0.20000000       0.20000000       0.20000000       0.20000000       0.20000000       0.20000000       0.20000000       0.20000000       0.20000000
           0.20000000       0.20000000       0.20000000       0.20000000       0.20000000       0.20000000       0.20000000       0.20000000       0.20000000       0.20000000       0.20000000       0.20000000       0.20000000       0.20000000       0.20000000       0.20000000       0.20000000       0.20000000       0.20000000       0.20000000
           0.20000000       0.20000000       0.20000000       0.20000000       0.20000000       0.20000000       0.20000000       0.20000000       0.20000000       0.20000000       0.20000000       0.20000000       0.20000000       0.20000000       0.20000000       0.20000000       0.20000000       0.20000000       0.20000000       0.20000000
           0.20000000       0.20000000       0.40000000       0.40000000       0.40000000       0.40000000       0.40000000       0.40000000       0.40000000       0.40000000       0.40000000       0.40000000       0.40000000       0.40000000       0.40000000       0.40000000       0.40000000       0.40000000       0.40000000       0.40000000
           0.40000000       0.40000000       0.40000000       0.40000000       0.40000000       0.40000000       0.40000000       0.40000000       0.40000000       0.40000000       0.40000000       0.40000000       0.40000000       0.40000000       0.40000000       0.40000000       0.40000000       0.40000000       0.40000000       0.40000000
           0.40000000       0.40000000       0.40000000       0.40000000       0.40000000       0.40000000       0.40000000       0.40000000       0.40000000       0.40000000       0.40000000       0.40000000       0.40000000       0.40000000       0.40000000       0.40000000       0.40000000       0.40000000       0.40000000       0.40000000
           0.40000000       0.40000000       0.40000000       0.40000000       0.40000000       0.40000000       0.40000000       0.40000000       0.40000000       0.40000000       0.40000000       0.40000000       0.40000000       0.40000000       0.40000000       0.40000000       0.40000000       0.40000000       0.40000000       0.40000000
           0.40000000       0.40000000       0.40000000       0.40000000       0.40000000       0.40000000       0.40000000       0.40000000       0.40000000       0.40000000       0.40000000       0.40000000       0.40000000       0.40000000       0.40000000       0.40000000       0.40000000       0.40000000       0.40000000       0.40000000
           0.40000000       0.40000000       0.40000000       0.40000000       0.40000000       0.40000000       0.40000000       0.40000000       0.40000000       0.40000000       0.40000000       0.40000000       0.40000000       0.40000000       0.40000000       0.20000000       0.20000000       0.40000000       0.40000000       0.40000000
           0.40000000       0.40000000       0.40000000       0.40000000       0.40000000       0.40000000       0.40000000       0.40000000       0.40000000       0.40000000       0.20000000       0.40000000       0.40000000       0.40000000       0.40000000       0.40000000       0.40000000       0.40000000       0.40000000       0.40000000
           0.40000000       0.40000000       0.40000000       0.40000000       0.40000000       0.40000000       0.40000000       0.40000000       0.40000000       0.40000000       0.40000000       0.20000000       0.20000000       0.40000000       0.20000000       0.40000000       0.40000000       0.40000000       0.40000000       0.40000000
           0.40000000       0.40000000       0.40000000       0.40000000       0.40000000       0.40000000       0.20000000       0.20000000       0.20000000       0.20000000       0.20000000       0.40000000       0.40000000       0.40000000       0.40000000       0.20000000       0.40000000       0.40000000       0.40000000       0.40000000
           0.40000000       0.40000000       0.20000000       0.20000000       0.20000000       0.20000000       0.20000000       0.40000000       0.40000000       0.40000000       0.20000000       0.20000000       0.20000000       0.40000000       0.40000000       0.40000000       0.40000000       0.40000000       0.40000000       0.40000000
           0.40000000       0.40000000       0.40000000       0.20000000       0.40000000       0.40000000       0.40000000       0.40000000       0.40000000       0.40000000       0.40000000       0.40000000       0.40000000       0.40000000       0.40000000       0.40000000       0.40000000       0.20000000       0.20000000       0.20000000
           0.40000000       0.40000000       0.40000000       0.40000000       0.40000000       0.20000000       0.20000000       0.20000000       0.20000000       0.20000000       0.40000000       0.40000000       0.40000000       0.40000000       0.40000000       0.40000000       0.40000000       0.40000000       0.40000000       0.40000000
           0.40000000       0.40000000       0.40000000       0.40000000       0.40000000       0.20000000       0.40000000       0.40000000       0.40000000       0.40000000       0.40000000       0.40000000       0.40000000       0.40000000       0.40000000       0.40000000       0.40000000       0.40000000       0.40000000       0.40000000
           0.40000000       0.20000000       0.40000000       0.40000000       0.40000000       0.40000000       0.40000000       0.40000000       0.40000000       0.40000000       0.40000000       0.40000000       0.40000000       0.40000000       0.40000000       0.40000000       0.40000000       0.20000000       0.40000000       0.40000000
           0.40000000       0.40000000       0.40000000       0.40000000       0.40000000       0.40000000       0.40000000       0.40000000       0.40000000       0.40000000       0.40000000       0.40000000       0.40000000       0.40000000       0.40000000       0.40000000       0.20000000       0.40000000       0.40000000       0.20000000
           0.20000000       0.20000000       0.20000000       0.20000000       0.20000000       0.20000000       0.20000000       0.20000000       0.20000000       0.20000000       0.20000000       0.20000000       0.20000000       0.20000000       0.20000000       0.20000000       0.20000000       0.20000000       0.20000000       0.20000000
           0.40000000       0.40000000       0.40000000       0.40000000       0.40000000       0.40000000       0.40000000       0.40000000       0.40000000       0.40000000       0.40000000       0.40000000       0.40000000       0.40000000       0.40000000       0.40000000       0.40000000       0.40000000       0.20000000       0.40000000
           0.40000000       0.40000000       0.40000000       0.40000000       0.40000000       0.40000000       0.20000000       0.40000000       0.40000000       0.40000000       0.40000000       0.40000000       0.40000000       0.40000000       0.40000000       0.40000000       0.20000000       0.20000000       0.20000000       0.20000000
           0.20000000       0.20000000       0.20000000       0.20000000       0.20000000       0.20000000       0.20000000       0.20000000       0.20000000       0.20000000       0.20000000       0.20000000       0.20000000       0.20000000       0.20000000       0.20000000       0.20000000       0.20000000       0.20000000       0.20000000
           0.20000000       0.20000000       0.20000000       0.20000000       0.20000000       0.20000000       0.20000000       0.20000000       0.20000000       0.20000000       0.20000000       0.20000000       0.20000000       0.20000000       0.20000000       0.20000000       0.20000000       0.20000000       0.20000000       0.20000000
           0.40000000       0.40000000       0.40000000       0.40000000       0.40000000       0.40000000       0.40000000       0.40000000       0.40000000       0.40000000       0.40000000       0.40000000       0.40000000       0.40000000       0.40000000       0.40000000       0.40000000       0.40000000       0.40000000       0.40000000
           0.40000000       0.40000000       0.40000000       0.40000000       0.40000000       0.40000000       0.40000000       0.40000000       0.40000000       0.40000000       0.40000000       0.40000000       0.40000000       0.20000000       0.20000000       0.20000000       0.20000000       0.20000000       0.20000000       0.20000000
           0.20000000       0.20000000       0.20000000       0.20000000       0.20000000       0.20000000       0.20000000       0.20000000       0.20000000       0.20000000       0.20000000       0.20000000       0.20000000       0.20000000       0.20000000       0.20000000       0.20000000       0.20000000       0.20000000       0.20000000
           0.20000000       0.20000000       0.20000000       0.20000000       0.20000000       0.40000000       0.40000000       0.40000000       0.40000000       0.40000000       0.40000000       0.40000000       0.40000000       0.40000000       0.40000000       0.40000000       0.40000000       0.40000000       0.40000000       0.40000000
           0.40000000       0.40000000       0.40000000       0.40000000       0.40000000       0.40000000       0.20000000       0.20000000       0.20000000       0.20000000       0.20000000       0.20000000       0.20000000       0.20000000       0.20000000       0.20000000       0.20000000       0.20000000       0.20000000       0.20000000
           0.20000000       0.20000000       0.40000000       0.40000000       0.40000000       0.40000000       0.40000000       0.40000000       0.40000000       0.40000000       0.40000000       0.40000000       0.40000000       0.40000000       0.40000000       0.20000000       0.20000000       0.20000000       0.20000000       0.20000000
           0.20000000       0.20000000       0.20000000       0.20000000       0.40000000       0.40000000       0.40000000       0.40000000       0.20000000       0.20000000       0.20000000       0.40000000       0.40000000       0.40000000       0.40000000       0.40000000       0.40000000       0.40000000       0.20000000       0.20000000
           0.20000000       0.40000000       0.40000000       0.40000000       0.40000000       0.40000000       0.20000000       0.20000000       0.40000000       0.40000000       0.40000000       0.40000000       0.40000000       0.40000000       0.20000000       0.20000000       0.20000000       0.20000000       0.20000000       0.20000000
           0.20000000       0.20000000       0.20000000       0.20000000       0.20000000       0.20000000       0.20000000       0.20000000       0.20000000       0.20000000       0.20000000       0.20000000       0.40000000       0.40000000       0.40000000       0.40000000       0.40000000       0.40000000       0.40000000       0.40000000
           0.40000000       0.40000000       0.20000000       0.20000000       0.20000000       0.20000000       0.40000000       0.20000000       0.20000000       0.20000000       0.20000000       0.20000000       0.20000000       0.40000000       0.40000000       0.40000000       0.40000000       0.20000000       0.20000000       0.40000000
           0.40000000       0.40000000       0.40000000       0.40000000       0.40000000       0.40000000       0.20000000       0.20000000       0.20000000       0.20000000       0.20000000       0.20000000       0.20000000       0.20000000       0.20000000       0.20000000       0.20000000       0.20000000       0.40000000       0.40000000
           0.40000000       0.40000000       0.20000000       0.20000000       0.20000000       0.40000000       0.20000000       0.20000000       0.20000000       0.20000000       0.40000000       0.40000000       0.40000000       0.20000000       0.40000000       0.40000000       0.40000000       0.20000000       0.40000000       0.40000000
           0.20000000       0.20000000       0.40000000       0.20000000       0.20000000       0.20000000       0.20000000       0.40000000       0.40000000       0.40000000       0.20000000       0.20000000       0.20000000       0.20000000       0.20000000       0.20000000       0.20000000       0.20000000       0.20000000       0.20000000
           0.20000000       0.20000000       0.20000000       0.20000000       0.20000000       0.20000000       0.20000000       0.20000000       0.20000000       0.20000000       0.20000000       0.20000000       0.20000000       0.20000000       0.20000000       0.20000000       0.20000000       0.20000000       0.20000000       0.20000000
           0.20000000       0.20000000       0.20000000       0.20000000       0.20000000       0.20000000       0.20000000       0.20000000       0.20000000       0.20000000       0.20000000       0.20000000       0.20000000       0.20000000       0.20000000       0.20000000       0.20000000       0.20000000       0.20000000       0.20000000
           0.20000000       0.20000000       0.20000000       0.20000000       0.20000000       0.20000000       0.20000000       0.20000000       0.20000000       0.20000000       0.20000000       0.40000000       0.40000000       0.40000000       0.40000000       0.40000000       0.40000000       0.40000000       0.40000000       0.40000000
           0.40000000       0.40000000       0.20000000       0.40000000       0.40000000       0.40000000       0.20000000       0.20000000       0.20000000       0.20000000       0.20000000       0.20000000       0.20000000       0.20000000       0.20000000       0.40000000       0.40000000       0.40000000       0.20000000       0.20000000
           0.20000000       0.20000000       0.20000000       0.20000000       0.40000000       0.40000000       0.40000000       0.40000000       0.40000000       0.40000000       0.40000000       0.20000000       0.20000000       0.20000000       0.20000000       0.40000000       0.40000000       0.40000000       0.40000000       0.40000000
           0.40000000       0.20000000       0.20000000       0.20000000       0.40000000       0.40000000       0.40000000       0.40000000       0.20000000       0.20000000       0.20000000       0.20000000       0.20000000       0.20000000       0.20000000       0.20000000       0.20000000       0.20000000       0.20000000       0.20000000
           0.20000000       0.20000000       0.20000000       0.20000000       0.20000000       0.20000000       0.20000000       0.20000000       0.20000000       0.20000000       0.20000000       0.20000000       0.20000000       0.20000000       0.20000000       0.20000000       0.20000000       0.40000000       0.40000000       0.40000000
           0.40000000       0.40000000       0.40000000       0.40000000       0.40000000       0.20000000       0.20000000       0.20000000       0.20000000       0.40000000       0.40000000       0.20000000       0.20000000       0.20000000       0.20000000       0.20000000       0.40000000       0.40000000       0.40000000       0.40000000
           0.40000000       0.40000000       0.20000000       0.40000000       0.20000000       0.20000000       0.20000000       0.20000000       0.20000000       0.20000000       0.20000000       0.20000000       0.20000000       0.20000000       0.20000000       0.20000000       0.20000000       0.20000000       0.20000000       0.20000000
           0.20000000       0.20000000       0.20000000       0.20000000       0.20000000       0.20000000       0.20000000       0.20000000       0.20000000       0.20000000       0.20000000       0.20000000       0.20000000       0.20000000       0.20000000       0.20000000       0.20000000       0.20000000       0.20000000       0.20000000
           0.20000000       0.20000000       0.20000000       0.20000000       0.20000000       0.20000000       0.20000000       0.20000000       0.20000000       0.20000000       0.20000000       0.20000000       0.20000000       0.20000000       0.20000000       0.20000000       0.20000000       0.20000000       0.20000000       0.20000000