# File generated by Flopy version 3.10.0.dev2 on 05/09/2025 at 15:29:03.
BEGIN options
END options

BEGIN griddata
  diffc
    CONSTANT       0.00000000
  alh
    CONSTANT      75.00000000
  ath1
    CONSTANT       7.50000000
END griddata

