# File generated by Flopy version 3.10.0.dev2 on 05/09/2025 at 15:29:03.
BEGIN options
END options

BEGIN sources
  LAK-1  AUX  CONCENTRATION
END sources

