# File generated by Flopy version 3.10.0.dev2 on 05/09/2025 at 15:28:14.
BEGIN options
  auxiliary  CONCENTRATION
END options

BEGIN dimensions
  MAXBOUND  2158
END dimensions

BEGIN period  1
  1 1 1 1.40000000E+01 2.85150000E+02
  1 1 247 1.39640000E+01 2.85150000E+02
  1 2 1 1.40000000E+01 2.85150000E+02
  1 2 247 1.39640000E+01 2.85150000E+02
  1 3 1 1.40000000E+01 2.85150000E+02
  1 3 247 1.39640000E+01 2.85150000E+02
  1 4 1 1.40000000E+01 2.85150000E+02
  1 4 247 1.39640000E+01 2.85150000E+02
  1 5 1 1.40000000E+01 2.85150000E+02
  1 5 247 1.39640000E+01 2.85150000E+02
  1 6 1 1.40000000E+01 2.85150000E+02
  1 6 247 1.39640000E+01 2.85150000E+02
  1 7 1 1.40000000E+01 2.85150000E+02
  1 7 247 1.39640000E+01 2.85150000E+02
  1 8 1 1.40000000E+01 2.85150000E+02
  1 8 247 1.39640000E+01 2.85150000E+02
  1 9 1 1.40000000E+01 2.85150000E+02
  1 9 247 1.39640000E+01 2.85150000E+02
  1 10 1 1.40000000E+01 2.85150000E+02
  1 10 247 1.39640000E+01 2.85150000E+02
  1 11 1 1.40000000E+01 2.85150000E+02
  1 11 247 1.39640000E+01 2.85150000E+02
  1 12 1 1.40000000E+01 2.85150000E+02
  1 12 247 1.39640000E+01 2.85150000E+02
  1 13 1 1.40000000E+01 2.85150000E+02
  1 13 247 1.39640000E+01 2.85150000E+02
  1 14 1 1.40000000E+01 2.85150000E+02
  1 14 247 1.39640000E+01 2.85150000E+02
  1 15 1 1.40000000E+01 2.85150000E+02
  1 15 247 1.39640000E+01 2.85150000E+02
  1 16 1 1.40000000E+01 2.85150000E+02
  1 16 247 1.39640000E+01 2.85150000E+02
  1 17 1 1.40000000E+01 2.85150000E+02
  1 17 247 1.39640000E+01 2.85150000E+02
  1 18 1 1.40000000E+01 2.85150000E+02
  1 18 247 1.39640000E+01 2.85150000E+02
  1 19 1 1.40000000E+01 2.85150000E+02
  1 19 247 1.39640000E+01 2.85150000E+02
  1 20 1 1.40000000E+01 2.85150000E+02
  1 20 247 1.39640000E+01 2.85150000E+02
  1 21 1 1.40000000E+01 2.85150000E+02
  1 21 247 1.39640000E+01 2.85150000E+02
  1 22 1 1.40000000E+01 2.85150000E+02
  1 22 247 1.39640000E+01 2.85150000E+02
  1 23 1 1.40000000E+01 2.85150000E+02
  1 23 247 1.39640000E+01 2.85150000E+02
  1 24 1 1.40000000E+01 2.85150000E+02
  1 24 247 1.39640000E+01 2.85150000E+02
  1 25 1 1.40000000E+01 2.85150000E+02
  1 25 247 1.39640000E+01 2.85150000E+02
  1 26 1 1.40000000E+01 2.85150000E+02
  1 26 247 1.39640000E+01 2.85150000E+02
  1 27 1 1.40000000E+01 2.85150000E+02
  1 27 247 1.39640000E+01 2.85150000E+02
  1 28 1 1.40000000E+01 2.85150000E+02
  1 28 247 1.39640000E+01 2.85150000E+02
  1 29 1 1.40000000E+01 2.85150000E+02
  1 29 247 1.39640000E+01 2.85150000E+02
  1 30 1 1.40000000E+01 2.85150000E+02
  1 30 247 1.39640000E+01 2.85150000E+02
  1 31 1 1.40000000E+01 2.85150000E+02
  1 31 247 1.39640000E+01 2.85150000E+02
  1 32 1 1.40000000E+01 2.85150000E+02
  1 32 247 1.39640000E+01 2.85150000E+02
  1 33 1 1.40000000E+01 2.85150000E+02
  1 33 247 1.39640000E+01 2.85150000E+02
  1 34 1 1.40000000E+01 2.85150000E+02
  1 34 247 1.39640000E+01 2.85150000E+02
  1 35 1 1.40000000E+01 2.85150000E+02
  1 35 247 1.39640000E+01 2.85150000E+02
  1 36 1 1.40000000E+01 2.85150000E+02
  1 36 247 1.39640000E+01 2.85150000E+02
  1 37 1 1.40000000E+01 2.85150000E+02
  1 37 247 1.39640000E+01 2.85150000E+02
  1 38 1 1.40000000E+01 2.85150000E+02
  1 38 247 1.39640000E+01 2.85150000E+02
  1 39 1 1.40000000E+01 2.85150000E+02
  1 39 247 1.39640000E+01 2.85150000E+02
  1 40 1 1.40000000E+01 2.85150000E+02
  1 40 247 1.39640000E+01 2.85150000E+02
  1 41 1 1.40000000E+01 2.85150000E+02
  1 41 247 1.39640000E+01 2.85150000E+02
  1 42 1 1.40000000E+01 2.85150000E+02
  1 42 247 1.39640000E+01 2.85150000E+02
  1 43 1 1.40000000E+01 2.85150000E+02
  1 43 247 1.39640000E+01 2.85150000E+02
  1 44 1 1.40000000E+01 2.85150000E+02
  1 44 247 1.39640000E+01 2.85150000E+02
  1 45 1 1.40000000E+01 2.85150000E+02
  1 45 247 1.39640000E+01 2.85150000E+02
  1 46 1 1.40000000E+01 2.85150000E+02
  1 46 247 1.39640000E+01 2.85150000E+02
  1 47 1 1.40000000E+01 2.85150000E+02
  1 47 247 1.39640000E+01 2.85150000E+02
  1 48 1 1.40000000E+01 2.85150000E+02
  1 48 247 1.39640000E+01 2.85150000E+02
  1 49 1 1.40000000E+01 2.85150000E+02
  1 49 247 1.39640000E+01 2.85150000E+02
  1 50 1 1.40000000E+01 2.85150000E+02
  1 50 247 1.39640000E+01 2.85150000E+02
  1 51 1 1.40000000E+01 2.85150000E+02
  1 51 247 1.39640000E+01 2.85150000E+02
  1 52 1 1.40000000E+01 2.85150000E+02
  1 52 247 1.39640000E+01 2.85150000E+02
  1 53 1 1.40000000E+01 2.85150000E+02
  1 53 247 1.39640000E+01 2.85150000E+02
  1 54 1 1.40000000E+01 2.85150000E+02
  1 54 247 1.39640000E+01 2.85150000E+02
  1 55 1 1.40000000E+01 2.85150000E+02
  1 55 247 1.39640000E+01 2.85150000E+02
  1 56 1 1.40000000E+01 2.85150000E+02
  1 56 247 1.39640000E+01 2.85150000E+02
  1 57 1 1.40000000E+01 2.85150000E+02
  1 57 247 1.39640000E+01 2.85150000E+02
  1 58 1 1.40000000E+01 2.85150000E+02
  1 58 247 1.39640000E+01 2.85150000E+02
  1 59 1 1.40000000E+01 2.85150000E+02
  1 59 247 1.39640000E+01 2.85150000E+02
  1 60 1 1.40000000E+01 2.85150000E+02
  1 60 247 1.39640000E+01 2.85150000E+02
  1 61 1 1.40000000E+01 2.85150000E+02
  1 61 247 1.39640000E+01 2.85150000E+02
  1 62 1 1.40000000E+01 2.85150000E+02
  1 62 247 1.39640000E+01 2.85150000E+02
  1 63 1 1.40000000E+01 2.85150000E+02
  1 63 247 1.39640000E+01 2.85150000E+02
  1 64 1 1.40000000E+01 2.85150000E+02
  1 64 247 1.39640000E+01 2.85150000E+02
  1 65 1 1.40000000E+01 2.85150000E+02
  1 65 247 1.39640000E+01 2.85150000E+02
  1 66 1 1.40000000E+01 2.85150000E+02
  1 66 247 1.39640000E+01 2.85150000E+02
  1 67 1 1.40000000E+01 2.85150000E+02
  1 67 247 1.39640000E+01 2.85150000E+02
  1 68 1 1.40000000E+01 2.85150000E+02
  1 68 247 1.39640000E+01 2.85150000E+02
  1 69 1 1.40000000E+01 2.85150000E+02
  1 69 247 1.39640000E+01 2.85150000E+02
  1 70 1 1.40000000E+01 2.85150000E+02
  1 70 247 1.39640000E+01 2.85150000E+02
  1 71 1 1.40000000E+01 2.85150000E+02
  1 71 247 1.39640000E+01 2.85150000E+02
  1 72 1 1.40000000E+01 2.85150000E+02
  1 72 247 1.39640000E+01 2.85150000E+02
  1 73 1 1.40000000E+01 2.85150000E+02
  1 73 247 1.39640000E+01 2.85150000E+02
  1 74 1 1.40000000E+01 2.85150000E+02
  1 74 247 1.39640000E+01 2.85150000E+02
  1 75 1 1.40000000E+01 2.85150000E+02
  1 75 247 1.39640000E+01 2.85150000E+02
  1 76 1 1.40000000E+01 2.85150000E+02
  1 76 247 1.39640000E+01 2.85150000E+02
  1 77 1 1.40000000E+01 2.85150000E+02
  1 77 247 1.39640000E+01 2.85150000E+02
  1 78 1 1.40000000E+01 2.85150000E+02
  1 78 247 1.39640000E+01 2.85150000E+02
  1 79 1 1.40000000E+01 2.85150000E+02
  1 79 247 1.39640000E+01 2.85150000E+02
  1 80 1 1.40000000E+01 2.85150000E+02
  1 80 247 1.39640000E+01 2.85150000E+02
  1 81 1 1.40000000E+01 2.85150000E+02
  1 81 247 1.39640000E+01 2.85150000E+02
  1 82 1 1.40000000E+01 2.85150000E+02
  1 82 247 1.39640000E+01 2.85150000E+02
  1 83 1 1.40000000E+01 2.85150000E+02
  1 83 247 1.39640000E+01 2.85150000E+02
  2 1 1 1.40000000E+01 2.85150000E+02
  2 1 247 1.39640000E+01 2.85150000E+02
  2 2 1 1.40000000E+01 2.85150000E+02
  2 2 247 1.39640000E+01 2.85150000E+02
  2 3 1 1.40000000E+01 2.85150000E+02
  2 3 247 1.39640000E+01 2.85150000E+02
  2 4 1 1.40000000E+01 2.85150000E+02
  2 4 247 1.39640000E+01 2.85150000E+02
  2 5 1 1.40000000E+01 2.85150000E+02
  2 5 247 1.39640000E+01 2.85150000E+02
  2 6 1 1.40000000E+01 2.85150000E+02
  2 6 247 1.39640000E+01 2.85150000E+02
  2 7 1 1.40000000E+01 2.85150000E+02
  2 7 247 1.39640000E+01 2.85150000E+02
  2 8 1 1.40000000E+01 2.85150000E+02
  2 8 247 1.39640000E+01 2.85150000E+02
  2 9 1 1.40000000E+01 2.85150000E+02
  2 9 247 1.39640000E+01 2.85150000E+02
  2 10 1 1.40000000E+01 2.85150000E+02
  2 10 247 1.39640000E+01 2.85150000E+02
  2 11 1 1.40000000E+01 2.85150000E+02
  2 11 247 1.39640000E+01 2.85150000E+02
  2 12 1 1.40000000E+01 2.85150000E+02
  2 12 247 1.39640000E+01 2.85150000E+02
  2 13 1 1.40000000E+01 2.85150000E+02
  2 13 247 1.39640000E+01 2.85150000E+02
  2 14 1 1.40000000E+01 2.85150000E+02
  2 14 247 1.39640000E+01 2.85150000E+02
  2 15 1 1.40000000E+01 2.85150000E+02
  2 15 247 1.39640000E+01 2.85150000E+02
  2 16 1 1.40000000E+01 2.85150000E+02
  2 16 247 1.39640000E+01 2.85150000E+02
  2 17 1 1.40000000E+01 2.85150000E+02
  2 17 247 1.39640000E+01 2.85150000E+02
  2 18 1 1.40000000E+01 2.85150000E+02
  2 18 247 1.39640000E+01 2.85150000E+02
  2 19 1 1.40000000E+01 2.85150000E+02
  2 19 247 1.39640000E+01 2.85150000E+02
  2 20 1 1.40000000E+01 2.85150000E+02
  2 20 247 1.39640000E+01 2.85150000E+02
  2 21 1 1.40000000E+01 2.85150000E+02
  2 21 247 1.39640000E+01 2.85150000E+02
  2 22 1 1.40000000E+01 2.85150000E+02
  2 22 247 1.39640000E+01 2.85150000E+02
  2 23 1 1.40000000E+01 2.85150000E+02
  2 23 247 1.39640000E+01 2.85150000E+02
  2 24 1 1.40000000E+01 2.85150000E+02
  2 24 247 1.39640000E+01 2.85150000E+02
  2 25 1 1.40000000E+01 2.85150000E+02
  2 25 247 1.39640000E+01 2.85150000E+02
  2 26 1 1.40000000E+01 2.85150000E+02
  2 26 247 1.39640000E+01 2.85150000E+02
  2 27 1 1.40000000E+01 2.85150000E+02
  2 27 247 1.39640000E+01 2.85150000E+02
  2 28 1 1.40000000E+01 2.85150000E+02
  2 28 247 1.39640000E+01 2.85150000E+02
  2 29 1 1.40000000E+01 2.85150000E+02
  2 29 247 1.39640000E+01 2.85150000E+02
  2 30 1 1.40000000E+01 2.85150000E+02
  2 30 247 1.39640000E+01 2.85150000E+02
  2 31 1 1.40000000E+01 2.85150000E+02
  2 31 247 1.39640000E+01 2.85150000E+02
  2 32 1 1.40000000E+01 2.85150000E+02
  2 32 247 1.39640000E+01 2.85150000E+02
  2 33 1 1.40000000E+01 2.85150000E+02
  2 33 247 1.39640000E+01 2.85150000E+02
  2 34 1 1.40000000E+01 2.85150000E+02
  2 34 247 1.39640000E+01 2.85150000E+02
  2 35 1 1.40000000E+01 2.85150000E+02
  2 35 247 1.39640000E+01 2.85150000E+02
  2 36 1 1.40000000E+01 2.85150000E+02
  2 36 247 1.39640000E+01 2.85150000E+02
  2 37 1 1.40000000E+01 2.85150000E+02
  2 37 247 1.39640000E+01 2.85150000E+02
  2 38 1 1.40000000E+01 2.85150000E+02
  2 38 247 1.39640000E+01 2.85150000E+02
  2 39 1 1.40000000E+01 2.85150000E+02
  2 39 247 1.39640000E+01 2.85150000E+02
  2 40 1 1.40000000E+01 2.85150000E+02
  2 40 247 1.39640000E+01 2.85150000E+02
  2 41 1 1.40000000E+01 2.85150000E+02
  2 41 247 1.39640000E+01 2.85150000E+02
  2 42 1 1.40000000E+01 2.85150000E+02
  2 42 247 1.39640000E+01 2.85150000E+02
  2 43 1 1.40000000E+01 2.85150000E+02
  2 43 247 1.39640000E+01 2.85150000E+02
  2 44 1 1.40000000E+01 2.85150000E+02
  2 44 247 1.39640000E+01 2.85150000E+02
  2 45 1 1.40000000E+01 2.85150000E+02
  2 45 247 1.39640000E+01 2.85150000E+02
  2 46 1 1.40000000E+01 2.85150000E+02
  2 46 247 1.39640000E+01 2.85150000E+02
  2 47 1 1.40000000E+01 2.85150000E+02
  2 47 247 1.39640000E+01 2.85150000E+02
  2 48 1 1.40000000E+01 2.85150000E+02
  2 48 247 1.39640000E+01 2.85150000E+02
  2 49 1 1.40000000E+01 2.85150000E+02
  2 49 247 1.39640000E+01 2.85150000E+02
  2 50 1 1.40000000E+01 2.85150000E+02
  2 50 247 1.39640000E+01 2.85150000E+02
  2 51 1 1.40000000E+01 2.85150000E+02
  2 51 247 1.39640000E+01 2.85150000E+02
  2 52 1 1.40000000E+01 2.85150000E+02
  2 52 247 1.39640000E+01 2.85150000E+02
  2 53 1 1.40000000E+01 2.85150000E+02
  2 53 247 1.39640000E+01 2.85150000E+02
  2 54 1 1.40000000E+01 2.85150000E+02
  2 54 247 1.39640000E+01 2.85150000E+02
  2 55 1 1.40000000E+01 2.85150000E+02
  2 55 247 1.39640000E+01 2.85150000E+02
  2 56 1 1.40000000E+01 2.85150000E+02
  2 56 247 1.39640000E+01 2.85150000E+02
  2 57 1 1.40000000E+01 2.85150000E+02
  2 57 247 1.39640000E+01 2.85150000E+02
  2 58 1 1.40000000E+01 2.85150000E+02
  2 58 247 1.39640000E+01 2.85150000E+02
  2 59 1 1.40000000E+01 2.85150000E+02
  2 59 247 1.39640000E+01 2.85150000E+02
  2 60 1 1.40000000E+01 2.85150000E+02
  2 60 247 1.39640000E+01 2.85150000E+02
  2 61 1 1.40000000E+01 2.85150000E+02
  2 61 247 1.39640000E+01 2.85150000E+02
  2 62 1 1.40000000E+01 2.85150000E+02
  2 62 247 1.39640000E+01 2.85150000E+02
  2 63 1 1.40000000E+01 2.85150000E+02
  2 63 247 1.39640000E+01 2.85150000E+02
  2 64 1 1.40000000E+01 2.85150000E+02
  2 64 247 1.39640000E+01 2.85150000E+02
  2 65 1 1.40000000E+01 2.85150000E+02
  2 65 247 1.39640000E+01 2.85150000E+02
  2 66 1 1.40000000E+01 2.85150000E+02
  2 66 247 1.39640000E+01 2.85150000E+02
  2 67 1 1.40000000E+01 2.85150000E+02
  2 67 247 1.39640000E+01 2.85150000E+02
  2 68 1 1.40000000E+01 2.85150000E+02
  2 68 247 1.39640000E+01 2.85150000E+02
  2 69 1 1.40000000E+01 2.85150000E+02
  2 69 247 1.39640000E+01 2.85150000E+02
  2 70 1 1.40000000E+01 2.85150000E+02
  2 70 247 1.39640000E+01 2.85150000E+02
  2 71 1 1.40000000E+01 2.85150000E+02
  2 71 247 1.39640000E+01 2.85150000E+02
  2 72 1 1.40000000E+01 2.85150000E+02
  2 72 247 1.39640000E+01 2.85150000E+02
  2 73 1 1.40000000E+01 2.85150000E+02
  2 73 247 1.39640000E+01 2.85150000E+02
  2 74 1 1.40000000E+01 2.85150000E+02
  2 74 247 1.39640000E+01 2.85150000E+02
  2 75 1 1.40000000E+01 2.85150000E+02
  2 75 247 1.39640000E+01 2.85150000E+02
  2 76 1 1.40000000E+01 2.85150000E+02
  2 76 247 1.39640000E+01 2.85150000E+02
  2 77 1 1.40000000E+01 2.85150000E+02
  2 77 247 1.39640000E+01 2.85150000E+02
  2 78 1 1.40000000E+01 2.85150000E+02
  2 78 247 1.39640000E+01 2.85150000E+02
  2 79 1 1.40000000E+01 2.85150000E+02
  2 79 247 1.39640000E+01 2.85150000E+02
  2 80 1 1.40000000E+01 2.85150000E+02
  2 80 247 1.39640000E+01 2.85150000E+02
  2 81 1 1.40000000E+01 2.85150000E+02
  2 81 247 1.39640000E+01 2.85150000E+02
  2 82 1 1.40000000E+01 2.85150000E+02
  2 82 247 1.39640000E+01 2.85150000E+02
  2 83 1 1.40000000E+01 2.85150000E+02
  2 83 247 1.39640000E+01 2.85150000E+02
  3 1 1 1.40000000E+01 2.85150000E+02
  3 1 247 1.39640000E+01 2.85150000E+02
  3 2 1 1.40000000E+01 2.85150000E+02
  3 2 247 1.39640000E+01 2.85150000E+02
  3 3 1 1.40000000E+01 2.85150000E+02
  3 3 247 1.39640000E+01 2.85150000E+02
  3 4 1 1.40000000E+01 2.85150000E+02
  3 4 247 1.39640000E+01 2.85150000E+02
  3 5 1 1.40000000E+01 2.85150000E+02
  3 5 247 1.39640000E+01 2.85150000E+02
  3 6 1 1.40000000E+01 2.85150000E+02
  3 6 247 1.39640000E+01 2.85150000E+02
  3 7 1 1.40000000E+01 2.85150000E+02
  3 7 247 1.39640000E+01 2.85150000E+02
  3 8 1 1.40000000E+01 2.85150000E+02
  3 8 247 1.39640000E+01 2.85150000E+02
  3 9 1 1.40000000E+01 2.85150000E+02
  3 9 247 1.39640000E+01 2.85150000E+02
  3 10 1 1.40000000E+01 2.85150000E+02
  3 10 247 1.39640000E+01 2.85150000E+02
  3 11 1 1.40000000E+01 2.85150000E+02
  3 11 247 1.39640000E+01 2.85150000E+02
  3 12 1 1.40000000E+01 2.85150000E+02
  3 12 247 1.39640000E+01 2.85150000E+02
  3 13 1 1.40000000E+01 2.85150000E+02
  3 13 247 1.39640000E+01 2.85150000E+02
  3 14 1 1.40000000E+01 2.85150000E+02
  3 14 247 1.39640000E+01 2.85150000E+02
  3 15 1 1.40000000E+01 2.85150000E+02
  3 15 247 1.39640000E+01 2.85150000E+02
  3 16 1 1.40000000E+01 2.85150000E+02
  3 16 247 1.39640000E+01 2.85150000E+02
  3 17 1 1.40000000E+01 2.85150000E+02
  3 17 247 1.39640000E+01 2.85150000E+02
  3 18 1 1.40000000E+01 2.85150000E+02
  3 18 247 1.39640000E+01 2.85150000E+02
  3 19 1 1.40000000E+01 2.85150000E+02
  3 19 247 1.39640000E+01 2.85150000E+02
  3 20 1 1.40000000E+01 2.85150000E+02
  3 20 247 1.39640000E+01 2.85150000E+02
  3 21 1 1.40000000E+01 2.85150000E+02
  3 21 247 1.39640000E+01 2.85150000E+02
  3 22 1 1.40000000E+01 2.85150000E+02
  3 22 247 1.39640000E+01 2.85150000E+02
  3 23 1 1.40000000E+01 2.85150000E+02
  3 23 247 1.39640000E+01 2.85150000E+02
  3 24 1 1.40000000E+01 2.85150000E+02
  3 24 247 1.39640000E+01 2.85150000E+02
  3 25 1 1.40000000E+01 2.85150000E+02
  3 25 247 1.39640000E+01 2.85150000E+02
  3 26 1 1.40000000E+01 2.85150000E+02
  3 26 247 1.39640000E+01 2.85150000E+02
  3 27 1 1.40000000E+01 2.85150000E+02
  3 27 247 1.39640000E+01 2.85150000E+02
  3 28 1 1.40000000E+01 2.85150000E+02
  3 28 247 1.39640000E+01 2.85150000E+02
  3 29 1 1.40000000E+01 2.85150000E+02
  3 29 247 1.39640000E+01 2.85150000E+02
  3 30 1 1.40000000E+01 2.85150000E+02
  3 30 247 1.39640000E+01 2.85150000E+02
  3 31 1 1.40000000E+01 2.85150000E+02
  3 31 247 1.39640000E+01 2.85150000E+02
  3 32 1 1.40000000E+01 2.85150000E+02
  3 32 247 1.39640000E+01 2.85150000E+02
  3 33 1 1.40000000E+01 2.85150000E+02
  3 33 247 1.39640000E+01 2.85150000E+02
  3 34 1 1.40000000E+01 2.85150000E+02
  3 34 247 1.39640000E+01 2.85150000E+02
  3 35 1 1.40000000E+01 2.85150000E+02
  3 35 247 1.39640000E+01 2.85150000E+02
  3 36 1 1.40000000E+01 2.85150000E+02
  3 36 247 1.39640000E+01 2.85150000E+02
  3 37 1 1.40000000E+01 2.85150000E+02
  3 37 247 1.39640000E+01 2.85150000E+02
  3 38 1 1.40000000E+01 2.85150000E+02
  3 38 247 1.39640000E+01 2.85150000E+02
  3 39 1 1.40000000E+01 2.85150000E+02
  3 39 247 1.39640000E+01 2.85150000E+02
  3 40 1 1.40000000E+01 2.85150000E+02
  3 40 247 1.39640000E+01 2.85150000E+02
  3 41 1 1.40000000E+01 2.85150000E+02
  3 41 247 1.39640000E+01 2.85150000E+02
  3 42 1 1.40000000E+01 2.85150000E+02
  3 42 247 1.39640000E+01 2.85150000E+02
  3 43 1 1.40000000E+01 2.85150000E+02
  3 43 247 1.39640000E+01 2.85150000E+02
  3 44 1 1.40000000E+01 2.85150000E+02
  3 44 247 1.39640000E+01 2.85150000E+02
  3 45 1 1.40000000E+01 2.85150000E+02
  3 45 247 1.39640000E+01 2.85150000E+02
  3 46 1 1.40000000E+01 2.85150000E+02
  3 46 247 1.39640000E+01 2.85150000E+02
  3 47 1 1.40000000E+01 2.85150000E+02
  3 47 247 1.39640000E+01 2.85150000E+02
  3 48 1 1.40000000E+01 2.85150000E+02
  3 48 247 1.39640000E+01 2.85150000E+02
  3 49 1 1.40000000E+01 2.85150000E+02
  3 49 247 1.39640000E+01 2.85150000E+02
  3 50 1 1.40000000E+01 2.85150000E+02
  3 50 247 1.39640000E+01 2.85150000E+02
  3 51 1 1.40000000E+01 2.85150000E+02
  3 51 247 1.39640000E+01 2.85150000E+02
  3 52 1 1.40000000E+01 2.85150000E+02
  3 52 247 1.39640000E+01 2.85150000E+02
  3 53 1 1.40000000E+01 2.85150000E+02
  3 53 247 1.39640000E+01 2.85150000E+02
  3 54 1 1.40000000E+01 2.85150000E+02
  3 54 247 1.39640000E+01 2.85150000E+02
  3 55 1 1.40000000E+01 2.85150000E+02
  3 55 247 1.39640000E+01 2.85150000E+02
  3 56 1 1.40000000E+01 2.85150000E+02
  3 56 247 1.39640000E+01 2.85150000E+02
  3 57 1 1.40000000E+01 2.85150000E+02
  3 57 247 1.39640000E+01 2.85150000E+02
  3 58 1 1.40000000E+01 2.85150000E+02
  3 58 247 1.39640000E+01 2.85150000E+02
  3 59 1 1.40000000E+01 2.85150000E+02
  3 59 247 1.39640000E+01 2.85150000E+02
  3 60 1 1.40000000E+01 2.85150000E+02
  3 60 247 1.39640000E+01 2.85150000E+02
  3 61 1 1.40000000E+01 2.85150000E+02
  3 61 247 1.39640000E+01 2.85150000E+02
  3 62 1 1.40000000E+01 2.85150000E+02
  3 62 247 1.39640000E+01 2.85150000E+02
  3 63 1 1.40000000E+01 2.85150000E+02
  3 63 247 1.39640000E+01 2.85150000E+02
  3 64 1 1.40000000E+01 2.85150000E+02
  3 64 247 1.39640000E+01 2.85150000E+02
  3 65 1 1.40000000E+01 2.85150000E+02
  3 65 247 1.39640000E+01 2.85150000E+02
  3 66 1 1.40000000E+01 2.85150000E+02
  3 66 247 1.39640000E+01 2.85150000E+02
  3 67 1 1.40000000E+01 2.85150000E+02
  3 67 247 1.39640000E+01 2.85150000E+02
  3 68 1 1.40000000E+01 2.85150000E+02
  3 68 247 1.39640000E+01 2.85150000E+02
  3 69 1 1.40000000E+01 2.85150000E+02
  3 69 247 1.39640000E+01 2.85150000E+02
  3 70 1 1.40000000E+01 2.85150000E+02
  3 70 247 1.39640000E+01 2.85150000E+02
  3 71 1 1.40000000E+01 2.85150000E+02
  3 71 247 1.39640000E+01 2.85150000E+02
  3 72 1 1.40000000E+01 2.85150000E+02
  3 72 247 1.39640000E+01 2.85150000E+02
  3 73 1 1.40000000E+01 2.85150000E+02
  3 73 247 1.39640000E+01 2.85150000E+02
  3 74 1 1.40000000E+01 2.85150000E+02
  3 74 247 1.39640000E+01 2.85150000E+02
  3 75 1 1.40000000E+01 2.85150000E+02
  3 75 247 1.39640000E+01 2.85150000E+02
  3 76 1 1.40000000E+01 2.85150000E+02
  3 76 247 1.39640000E+01 2.85150000E+02
  3 77 1 1.40000000E+01 2.85150000E+02
  3 77 247 1.39640000E+01 2.85150000E+02
  3 78 1 1.40000000E+01 2.85150000E+02
  3 78 247 1.39640000E+01 2.85150000E+02
  3 79 1 1.40000000E+01 2.85150000E+02
  3 79 247 1.39640000E+01 2.85150000E+02
  3 80 1 1.40000000E+01 2.85150000E+02
  3 80 247 1.39640000E+01 2.85150000E+02
  3 81 1 1.40000000E+01 2.85150000E+02
  3 81 247 1.39640000E+01 2.85150000E+02
  3 82 1 1.40000000E+01 2.85150000E+02
  3 82 247 1.39640000E+01 2.85150000E+02
  3 83 1 1.40000000E+01 2.85150000E+02
  3 83 247 1.39640000E+01 2.85150000E+02
  4 1 1 1.40000000E+01 2.85150000E+02
  4 1 247 1.39640000E+01 2.85150000E+02
  4 2 1 1.40000000E+01 2.85150000E+02
  4 2 247 1.39640000E+01 2.85150000E+02
  4 3 1 1.40000000E+01 2.85150000E+02
  4 3 247 1.39640000E+01 2.85150000E+02
  4 4 1 1.40000000E+01 2.85150000E+02
  4 4 247 1.39640000E+01 2.85150000E+02
  4 5 1 1.40000000E+01 2.85150000E+02
  4 5 247 1.39640000E+01 2.85150000E+02
  4 6 1 1.40000000E+01 2.85150000E+02
  4 6 247 1.39640000E+01 2.85150000E+02
  4 7 1 1.40000000E+01 2.85150000E+02
  4 7 247 1.39640000E+01 2.85150000E+02
  4 8 1 1.40000000E+01 2.85150000E+02
  4 8 247 1.39640000E+01 2.85150000E+02
  4 9 1 1.40000000E+01 2.85150000E+02
  4 9 247 1.39640000E+01 2.85150000E+02
  4 10 1 1.40000000E+01 2.85150000E+02
  4 10 247 1.39640000E+01 2.85150000E+02
  4 11 1 1.40000000E+01 2.85150000E+02
  4 11 247 1.39640000E+01 2.85150000E+02
  4 12 1 1.40000000E+01 2.85150000E+02
  4 12 247 1.39640000E+01 2.85150000E+02
  4 13 1 1.40000000E+01 2.85150000E+02
  4 13 247 1.39640000E+01 2.85150000E+02
  4 14 1 1.40000000E+01 2.85150000E+02
  4 14 247 1.39640000E+01 2.85150000E+02
  4 15 1 1.40000000E+01 2.85150000E+02
  4 15 247 1.39640000E+01 2.85150000E+02
  4 16 1 1.40000000E+01 2.85150000E+02
  4 16 247 1.39640000E+01 2.85150000E+02
  4 17 1 1.40000000E+01 2.85150000E+02
  4 17 247 1.39640000E+01 2.85150000E+02
  4 18 1 1.40000000E+01 2.85150000E+02
  4 18 247 1.39640000E+01 2.85150000E+02
  4 19 1 1.40000000E+01 2.85150000E+02
  4 19 247 1.39640000E+01 2.85150000E+02
  4 20 1 1.40000000E+01 2.85150000E+02
  4 20 247 1.39640000E+01 2.85150000E+02
  4 21 1 1.40000000E+01 2.85150000E+02
  4 21 247 1.39640000E+01 2.85150000E+02
  4 22 1 1.40000000E+01 2.85150000E+02
  4 22 247 1.39640000E+01 2.85150000E+02
  4 23 1 1.40000000E+01 2.85150000E+02
  4 23 247 1.39640000E+01 2.85150000E+02
  4 24 1 1.40000000E+01 2.85150000E+02
  4 24 247 1.39640000E+01 2.85150000E+02
  4 25 1 1.40000000E+01 2.85150000E+02
  4 25 247 1.39640000E+01 2.85150000E+02
  4 26 1 1.40000000E+01 2.85150000E+02
  4 26 247 1.39640000E+01 2.85150000E+02
  4 27 1 1.40000000E+01 2.85150000E+02
  4 27 247 1.39640000E+01 2.85150000E+02
  4 28 1 1.40000000E+01 2.85150000E+02
  4 28 247 1.39640000E+01 2.85150000E+02
  4 29 1 1.40000000E+01 2.85150000E+02
  4 29 247 1.39640000E+01 2.85150000E+02
  4 30 1 1.40000000E+01 2.85150000E+02
  4 30 247 1.39640000E+01 2.85150000E+02
  4 31 1 1.40000000E+01 2.85150000E+02
  4 31 247 1.39640000E+01 2.85150000E+02
  4 32 1 1.40000000E+01 2.85150000E+02
  4 32 247 1.39640000E+01 2.85150000E+02
  4 33 1 1.40000000E+01 2.85150000E+02
  4 33 247 1.39640000E+01 2.85150000E+02
  4 34 1 1.40000000E+01 2.85150000E+02
  4 34 247 1.39640000E+01 2.85150000E+02
  4 35 1 1.40000000E+01 2.85150000E+02
  4 35 247 1.39640000E+01 2.85150000E+02
  4 36 1 1.40000000E+01 2.85150000E+02
  4 36 247 1.39640000E+01 2.85150000E+02
  4 37 1 1.40000000E+01 2.85150000E+02
  4 37 247 1.39640000E+01 2.85150000E+02
  4 38 1 1.40000000E+01 2.85150000E+02
  4 38 247 1.39640000E+01 2.85150000E+02
  4 39 1 1.40000000E+01 2.85150000E+02
  4 39 247 1.39640000E+01 2.85150000E+02
  4 40 1 1.40000000E+01 2.85150000E+02
  4 40 247 1.39640000E+01 2.85150000E+02
  4 41 1 1.40000000E+01 2.85150000E+02
  4 41 247 1.39640000E+01 2.85150000E+02
  4 42 1 1.40000000E+01 2.85150000E+02
  4 42 247 1.39640000E+01 2.85150000E+02
  4 43 1 1.40000000E+01 2.85150000E+02
  4 43 247 1.39640000E+01 2.85150000E+02
  4 44 1 1.40000000E+01 2.85150000E+02
  4 44 247 1.39640000E+01 2.85150000E+02
  4 45 1 1.40000000E+01 2.85150000E+02
  4 45 247 1.39640000E+01 2.85150000E+02
  4 46 1 1.40000000E+01 2.85150000E+02
  4 46 247 1.39640000E+01 2.85150000E+02
  4 47 1 1.40000000E+01 2.85150000E+02
  4 47 247 1.39640000E+01 2.85150000E+02
  4 48 1 1.40000000E+01 2.85150000E+02
  4 48 247 1.39640000E+01 2.85150000E+02
  4 49 1 1.40000000E+01 2.85150000E+02
  4 49 247 1.39640000E+01 2.85150000E+02
  4 50 1 1.40000000E+01 2.85150000E+02
  4 50 247 1.39640000E+01 2.85150000E+02
  4 51 1 1.40000000E+01 2.85150000E+02
  4 51 247 1.39640000E+01 2.85150000E+02
  4 52 1 1.40000000E+01 2.85150000E+02
  4 52 247 1.39640000E+01 2.85150000E+02
  4 53 1 1.40000000E+01 2.85150000E+02
  4 53 247 1.39640000E+01 2.85150000E+02
  4 54 1 1.40000000E+01 2.85150000E+02
  4 54 247 1.39640000E+01 2.85150000E+02
  4 55 1 1.40000000E+01 2.85150000E+02
  4 55 247 1.39640000E+01 2.85150000E+02
  4 56 1 1.40000000E+01 2.85150000E+02
  4 56 247 1.39640000E+01 2.85150000E+02
  4 57 1 1.40000000E+01 2.85150000E+02
  4 57 247 1.39640000E+01 2.85150000E+02
  4 58 1 1.40000000E+01 2.85150000E+02
  4 58 247 1.39640000E+01 2.85150000E+02
  4 59 1 1.40000000E+01 2.85150000E+02
  4 59 247 1.39640000E+01 2.85150000E+02
  4 60 1 1.40000000E+01 2.85150000E+02
  4 60 247 1.39640000E+01 2.85150000E+02
  4 61 1 1.40000000E+01 2.85150000E+02
  4 61 247 1.39640000E+01 2.85150000E+02
  4 62 1 1.40000000E+01 2.85150000E+02
  4 62 247 1.39640000E+01 2.85150000E+02
  4 63 1 1.40000000E+01 2.85150000E+02
  4 63 247 1.39640000E+01 2.85150000E+02
  4 64 1 1.40000000E+01 2.85150000E+02
  4 64 247 1.39640000E+01 2.85150000E+02
  4 65 1 1.40000000E+01 2.85150000E+02
  4 65 247 1.39640000E+01 2.85150000E+02
  4 66 1 1.40000000E+01 2.85150000E+02
  4 66 247 1.39640000E+01 2.85150000E+02
  4 67 1 1.40000000E+01 2.85150000E+02
  4 67 247 1.39640000E+01 2.85150000E+02
  4 68 1 1.40000000E+01 2.85150000E+02
  4 68 247 1.39640000E+01 2.85150000E+02
  4 69 1 1.40000000E+01 2.85150000E+02
  4 69 247 1.39640000E+01 2.85150000E+02
  4 70 1 1.40000000E+01 2.85150000E+02
  4 70 247 1.39640000E+01 2.85150000E+02
  4 71 1 1.40000000E+01 2.85150000E+02
  4 71 247 1.39640000E+01 2.85150000E+02
  4 72 1 1.40000000E+01 2.85150000E+02
  4 72 247 1.39640000E+01 2.85150000E+02
  4 73 1 1.40000000E+01 2.85150000E+02
  4 73 247 1.39640000E+01 2.85150000E+02
  4 74 1 1.40000000E+01 2.85150000E+02
  4 74 247 1.39640000E+01 2.85150000E+02
  4 75 1 1.40000000E+01 2.85150000E+02
  4 75 247 1.39640000E+01 2.85150000E+02
  4 76 1 1.40000000E+01 2.85150000E+02
  4 76 247 1.39640000E+01 2.85150000E+02
  4 77 1 1.40000000E+01 2.85150000E+02
  4 77 247 1.39640000E+01 2.85150000E+02
  4 78 1 1.40000000E+01 2.85150000E+02
  4 78 247 1.39640000E+01 2.85150000E+02
  4 79 1 1.40000000E+01 2.85150000E+02
  4 79 247 1.39640000E+01 2.85150000E+02
  4 80 1 1.40000000E+01 2.85150000E+02
  4 80 247 1.39640000E+01 2.85150000E+02
  4 81 1 1.40000000E+01 2.85150000E+02
  4 81 247 1.39640000E+01 2.85150000E+02
  4 82 1 1.40000000E+01 2.85150000E+02
  4 82 247 1.39640000E+01 2.85150000E+02
  4 83 1 1.40000000E+01 2.85150000E+02
  4 83 247 1.39640000E+01 2.85150000E+02
  5 1 1 1.40000000E+01 2.85150000E+02
  5 1 247 1.39640000E+01 2.85150000E+02
  5 2 1 1.40000000E+01 2.85150000E+02
  5 2 247 1.39640000E+01 2.85150000E+02
  5 3 1 1.40000000E+01 2.85150000E+02
  5 3 247 1.39640000E+01 2.85150000E+02
  5 4 1 1.40000000E+01 2.85150000E+02
  5 4 247 1.39640000E+01 2.85150000E+02
  5 5 1 1.40000000E+01 2.85150000E+02
  5 5 247 1.39640000E+01 2.85150000E+02
  5 6 1 1.40000000E+01 2.85150000E+02
  5 6 247 1.39640000E+01 2.85150000E+02
  5 7 1 1.40000000E+01 2.85150000E+02
  5 7 247 1.39640000E+01 2.85150000E+02
  5 8 1 1.40000000E+01 2.85150000E+02
  5 8 247 1.39640000E+01 2.85150000E+02
  5 9 1 1.40000000E+01 2.85150000E+02
  5 9 247 1.39640000E+01 2.85150000E+02
  5 10 1 1.40000000E+01 2.85150000E+02
  5 10 247 1.39640000E+01 2.85150000E+02
  5 11 1 1.40000000E+01 2.85150000E+02
  5 11 247 1.39640000E+01 2.85150000E+02
  5 12 1 1.40000000E+01 2.85150000E+02
  5 12 247 1.39640000E+01 2.85150000E+02
  5 13 1 1.40000000E+01 2.85150000E+02
  5 13 247 1.39640000E+01 2.85150000E+02
  5 14 1 1.40000000E+01 2.85150000E+02
  5 14 247 1.39640000E+01 2.85150000E+02
  5 15 1 1.40000000E+01 2.85150000E+02
  5 15 247 1.39640000E+01 2.85150000E+02
  5 16 1 1.40000000E+01 2.85150000E+02
  5 16 247 1.39640000E+01 2.85150000E+02
  5 17 1 1.40000000E+01 2.85150000E+02
  5 17 247 1.39640000E+01 2.85150000E+02
  5 18 1 1.40000000E+01 2.85150000E+02
  5 18 247 1.39640000E+01 2.85150000E+02
  5 19 1 1.40000000E+01 2.85150000E+02
  5 19 247 1.39640000E+01 2.85150000E+02
  5 20 1 1.40000000E+01 2.85150000E+02
  5 20 247 1.39640000E+01 2.85150000E+02
  5 21 1 1.40000000E+01 2.85150000E+02
  5 21 247 1.39640000E+01 2.85150000E+02
  5 22 1 1.40000000E+01 2.85150000E+02
  5 22 247 1.39640000E+01 2.85150000E+02
  5 23 1 1.40000000E+01 2.85150000E+02
  5 23 247 1.39640000E+01 2.85150000E+02
  5 24 1 1.40000000E+01 2.85150000E+02
  5 24 247 1.39640000E+01 2.85150000E+02
  5 25 1 1.40000000E+01 2.85150000E+02
  5 25 247 1.39640000E+01 2.85150000E+02
  5 26 1 1.40000000E+01 2.85150000E+02
  5 26 247 1.39640000E+01 2.85150000E+02
  5 27 1 1.40000000E+01 2.85150000E+02
  5 27 247 1.39640000E+01 2.85150000E+02
  5 28 1 1.40000000E+01 2.85150000E+02
  5 28 247 1.39640000E+01 2.85150000E+02
  5 29 1 1.40000000E+01 2.85150000E+02
  5 29 247 1.39640000E+01 2.85150000E+02
  5 30 1 1.40000000E+01 2.85150000E+02
  5 30 247 1.39640000E+01 2.85150000E+02
  5 31 1 1.40000000E+01 2.85150000E+02
  5 31 247 1.39640000E+01 2.85150000E+02
  5 32 1 1.40000000E+01 2.85150000E+02
  5 32 247 1.39640000E+01 2.85150000E+02
  5 33 1 1.40000000E+01 2.85150000E+02
  5 33 247 1.39640000E+01 2.85150000E+02
  5 34 1 1.40000000E+01 2.85150000E+02
  5 34 247 1.39640000E+01 2.85150000E+02
  5 35 1 1.40000000E+01 2.85150000E+02
  5 35 247 1.39640000E+01 2.85150000E+02
  5 36 1 1.40000000E+01 2.85150000E+02
  5 36 247 1.39640000E+01 2.85150000E+02
  5 37 1 1.40000000E+01 2.85150000E+02
  5 37 247 1.39640000E+01 2.85150000E+02
  5 38 1 1.40000000E+01 2.85150000E+02
  5 38 247 1.39640000E+01 2.85150000E+02
  5 39 1 1.40000000E+01 2.85150000E+02
  5 39 247 1.39640000E+01 2.85150000E+02
  5 40 1 1.40000000E+01 2.85150000E+02
  5 40 247 1.39640000E+01 2.85150000E+02
  5 41 1 1.40000000E+01 2.85150000E+02
  5 41 247 1.39640000E+01 2.85150000E+02
  5 42 1 1.40000000E+01 2.85150000E+02