# File generated by Flopy version 3.10.0.dev2 on 05/09/2025 at 15:28:14.
BEGIN options
  SAVE_FLOWS
END options

BEGIN packages
  DIS6  gwf-hecht-mendez.dis  dis
  IC6  gwf-hecht-mendez.ic  ic
  NPF6  gwf-hecht-mendez.npf  npf
  STO6  gwf-hecht-mendez.sto  sto
  CHD6  gwf-hecht-mendez.chd  chd-1
  OC6  gwf-hecht-mendez.oc  oc
END packages

