# File generated by Flopy version 3.10.0.dev2 on 05/09/2025 at 15:28:14.
BEGIN options
  SAVE_FLOWS
  SAVE_SPECIFIC_DISCHARGE
  SAVE_SATURATION
END options

BEGIN griddata
  icelltype
    CONSTANT  0
  k
    CONSTANT       0.00800000
  k33
    CONSTANT       0.00800000
END griddata

