# File generated by Flopy version 3.10.0.dev2 on 05/09/2025 at 15:27:39.
BEGIN options
  SAVE_FLOWS
  NEWTON
END options

BEGIN packages
  DIS6  ex-gwf-csub-p02c.dis  dis
  OBS6  ex-gwf-csub-p02c.obs  obs_0
  IC6  ex-gwf-csub-p02c.ic  ic
  NPF6  ex-gwf-csub-p02c.npf  npf
  STO6  ex-gwf-csub-p02c.sto  sto
  CSUB6  ex-gwf-csub-p02c.csub  csub
  CHD6  ex-gwf-csub-p02c.chd  chd_0
  OC6  ex-gwf-csub-p02c.oc  oc
END packages

