# File generated by Flopy version 3.10.0.dev2 on 05/09/2025 at 15:28:06.
BEGIN options
END options

BEGIN dimensions
  MAXBOUND  3
END dimensions

BEGIN period  1
  1 46 80 2.40000000E+01
  1 47 80 2.40000000E+01
  1 48 80 2.40000000E+01
END period  1

