# File generated by Flopy version 3.10.0.dev2 on 05/09/2025 at 15:27:35.
BEGIN options
  SAVE_FLOWS
  NEWTON  UNDER_RELAXATION
END options

BEGIN packages
  DIS6  ex-gwf-bump.dis  dis
  NPF6  ex-gwf-bump.npf  npf
  IC6  ex-gwf-bump.ic  ic
  CHD6  ex-gwf-bump.chd  chd_0
  OC6  ex-gwf-bump.oc  oc
END packages

