# File generated by Flopy version 3.10.0.dev2 on 05/09/2025 at 15:27:50.
BEGIN options
  SAVE_FLOWS
END options

BEGIN packages
  DIS6  ex-gwf-hanic.dis  dis
  NPF6  ex-gwf-hanic.npf  npf
  IC6  ex-gwf-hanic.ic  ic
  CHD6  ex-gwf-hanic.chd  chd
  WEL6  ex-gwf-hanic.wel  wel
  OC6  ex-gwf-hanic.oc  oc
END packages

