# RCH package for MODFLOW-2005 generated by Flopy 3.10.0.dev2
         3         0
         1        -1 # Stress period 1
CONSTANT    2.739726E-04                           #rech_1                        
        -1        -1 # Stress period 2
