# # MPBAS package for MODPATH 7 generated by Flopy 3.9.3
0                   # DEFAULTIFACECOUNT
CONSTANT    3.000000E-01                           #porosity layer 1              
