# File generated by Flopy version 3.10.0.dev2 on 05/09/2025 at 15:28:14.
BEGIN options
END options

BEGIN packagedata
  GWFHEAD  FILEIN  ../mf6gwf/gwf-hecht-mendez.hds
  GWFBUDGET  FILEIN  ../mf6gwf/gwf-hecht-mendez.bud
END packagedata

