# File generated by Flopy version 3.10.0.dev2 on 05/09/2025 at 15:28:14.
BEGIN options
END options

BEGIN timing
  TDIS6  gwt-hecht-mendez.tdis
END timing

BEGIN models
  gwt6  gwt-hecht-mendez.nam  gwt-hecht-mendez
END models

BEGIN exchanges
END exchanges

BEGIN solutiongroup  1
  ims6  gwt-hecht-mendez.ims  gwt-hecht-mendez
END solutiongroup  1

