# File generated by Flopy version 3.10.0.dev2 on 05/09/2025 at 15:28:19.
BEGIN options
  SORPTION  linear
END options

BEGIN griddata
  porosity
    CONSTANT       0.10000000
  bulk_density
    CONSTANT       1.00000000
  distcoef
    CONSTANT       0.10000000
END griddata

