# Name file for MODPATH 7, generated by Flopy version 3.9.3.
MPBAS      modpath_DGE02.mpbas
GRBDIS     ..\gwfmodel.dis.grb
TDIS       ..\testmodel.tdis
HEAD       ..\gwfmodel.hds
BUDGET     ..\gwfmodel.cbc
