# File generated by Flopy version 3.10.0.dev2 on 05/09/2025 at 15:29:28.
BEGIN options
  PRINT_OPTION  all
END options

BEGIN linear
  INNER_MAXIMUM  100
END linear

