# File generated by Flopy version 3.10.0.dev2 on 05/09/2025 at 15:29:28.
BEGIN options
END options

BEGIN timing
  TDIS6  ex-gwf-toth.tdis
END timing

BEGIN models
  gwf6  toth.nam  toth
END models

BEGIN exchanges
END exchanges

BEGIN solutiongroup  1
  ims6  ex-gwf-toth.ims  toth
END solutiongroup  1

