# File generated by Flopy version 3.10.0.dev2 on 05/09/2025 at 15:29:28.
BEGIN options
END options

BEGIN dimensions
  MAXBOUND  100
END dimensions

BEGIN period  1
  1 1 1 1.00301291E+04
  1 1 2 1.00888046E+04
  1 1 3 1.01428310E+04
  1 1 4 1.01894353E+04
  1 1 5 1.02263118E+04
  1 1 6 1.02517674E+04
  1 1 7 1.02648286E+04
  1 1 8 1.02653027E+04
  1 1 9 1.02537896E+04
  1 1 10 1.02316444E+04
  1 1 11 1.02008921E+04
  1 1 12 1.01640995E+04
  1 1 13 1.01242141E+04
  1 1 14 1.00843782E+04
  1 1 15 1.00477310E+04
  1 1 16 1.00172108E+04
  1 1 17 9.99536988E+03
  1 1 18 9.98421396E+03
  1 1 19 9.98507564E+03
  1 1 20 9.99853054E+03
  1 1 21 1.00243610E+04
  1 1 22 1.00615700E+04
  1 1 23 1.01084435E+04
  1 1 24 1.01626588E+04
  1 1 25 1.02214310E+04
  1 1 26 1.02816877E+04
  1 1 27 1.03402634E+04
  1 1 28 1.03940983E+04
  1 1 29 1.04404311E+04
  1 1 30 1.04769734E+04
  1 1 31 1.05020532E+04
  1 1 32 1.05147206E+04
  1 1 33 1.05148076E+04
  1 1 34 1.05029387E+04
  1 1 35 1.04804913E+04
  1 1 36 1.04495093E+04
  1 1 37 1.04125742E+04
  1 1 38 1.03726424E+04
  1 1 39 1.03328591E+04
  1 1 40 1.02963601E+04
  1 1 41 1.02660745E+04
  1 1 42 1.02445398E+04
  1 1 43 1.02337424E+04
  1 1 44 1.02349922E+04
  1 1 45 1.02488406E+04
  1 1 46 1.02750450E+04
  1 1 47 1.03125847E+04
  1 1 48 1.03597251E+04
  1 1 49 1.04141267E+04
  1 1 50 1.04729925E+04
  1 1 51 1.05332446E+04
  1 1 52 1.05917176E+04
  1 1 53 1.06453581E+04
  1 1 54 1.06914173E+04
  1 1 55 1.07276238E+04
  1 1 56 1.07523268E+04
  1 1 57 1.07646002E+04
  1 1 58 1.07643008E+04
  1 1 59 1.07520774E+04
  1 1 60 1.07293297E+04
  1 1 61 1.06981207E+04
  1 1 62 1.06610460E+04
  1 1 63 1.06210708E+04
  1 1 64 1.05813432E+04
  1 1 65 1.05449953E+04
  1 1 66 1.05149468E+04
  1 1 67 1.04937202E+04
  1 1 68 1.04832825E+04
  1 1 69 1.04849211E+04
  1 1 70 1.04991627E+04
  1 1 71 1.05257400E+04
  1 1 72 1.05636089E+04
  1 1 73 1.06110139E+04
  1 1 74 1.06655989E+04
  1 1 75 1.07245554E+04
  1 1 76 1.07847998E+04
  1 1 77 1.08431671E+04
  1 1 78 1.08966106E+04
  1 1 79 1.09423939E+04
  1 1 80 1.09782630E+04
  1 1 81 1.10025883E+04
  1 1 82 1.10144676E+04
  1 1 83 1.10137824E+04
  1 1 84 1.10012058E+04
  1 1 85 1.09781599E+04
  1 1 86 1.09467263E+04
  1 1 87 1.09095149E+04
  1 1 88 1.08694995E+04
  1 1 89 1.08298305E+04
  1 1 90 1.07936367E+04
  1 1 91 1.07638277E+04
  1 1 92 1.07429112E+04
  1 1 93 1.07328345E+04
  1 1 94 1.07348624E+04
  1 1 95 1.07494968E+04
  1 1 96 1.07764460E+04
  1 1 97 1.08146424E+04
  1 1 98 1.08623097E+04
  1 1 99 1.09170754E+04
  1 1 100 1.09761196E+04
END period  1

