# File generated by Flopy version 3.10.0.dev2 on 05/09/2025 at 15:29:28.
BEGIN options
END options

BEGIN dimensions
  NLAY  200
  NROW  1
  NCOL  100
END dimensions

BEGIN griddata
  delr
    CONSTANT     200.00000000
  delc
    CONSTANT       1.00000000
  top
    CONSTANT   10000.00000000
  botm  LAYERED
    CONSTANT    9950.00000000
    CONSTANT    9900.00000000
    CONSTANT    9850.00000000
    CONSTANT    9800.00000000
    CONSTANT    9750.00000000
    CONSTANT    9700.00000000
    CONSTANT    9650.00000000
    CONSTANT    9600.00000000
    CONSTANT    9550.00000000
    CONSTANT    9500.00000000
    CONSTANT    9450.00000000
    CONSTANT    9400.00000000
    CONSTANT    9350.00000000
    CONSTANT    9300.00000000
    CONSTANT    9250.00000000
    CONSTANT    9200.00000000
    CONSTANT    9150.00000000
    CONSTANT    9100.00000000
    CONSTANT    9050.00000000
    CONSTANT    9000.00000000
    CONSTANT    8950.00000000
    CONSTANT    8900.00000000
    CONSTANT    8850.00000000
    CONSTANT    8800.00000000
    CONSTANT    8750.00000000
    CONSTANT    8700.00000000
    CONSTANT    8650.00000000
    CONSTANT    8600.00000000
    CONSTANT    8550.00000000
    CONSTANT    8500.00000000
    CONSTANT    8450.00000000
    CONSTANT    8400.00000000
    CONSTANT    8350.00000000
    CONSTANT    8300.00000000
    CONSTANT    8250.00000000
    CONSTANT    8200.00000000
    CONSTANT    8150.00000000
    CONSTANT    8100.00000000
    CONSTANT    8050.00000000
    CONSTANT    8000.00000000
    CONSTANT    7950.00000000
    CONSTANT    7900.00000000
    CONSTANT    7850.00000000
    CONSTANT    7800.00000000
    CONSTANT    7750.00000000
    CONSTANT    7700.00000000
    CONSTANT    7650.00000000
    CONSTANT    7600.00000000
    CONSTANT    7550.00000000
    CONSTANT    7500.00000000
    CONSTANT    7450.00000000
    CONSTANT    7400.00000000
    CONSTANT    7350.00000000
    CONSTANT    7300.00000000
    CONSTANT    7250.00000000
    CONSTANT    7200.00000000
    CONSTANT    7150.00000000
    CONSTANT    7100.00000000
    CONSTANT    7050.00000000
    CONSTANT    7000.00000000
    CONSTANT    6950.00000000
    CONSTANT    6900.00000000
    CONSTANT    6850.00000000
    CONSTANT    6800.00000000
    CONSTANT    6750.00000000
    CONSTANT    6700.00000000
    CONSTANT    6650.00000000
    CONSTANT    6600.00000000
    CONSTANT    6550.00000000
    CONSTANT    6500.00000000
    CONSTANT    6450.00000000
    CONSTANT    6400.00000000
    CONSTANT    6350.00000000
    CONSTANT    6300.00000000
    CONSTANT    6250.00000000
    CONSTANT    6200.00000000
    CONSTANT    6150.00000000
    CONSTANT    6100.00000000
    CONSTANT    6050.00000000
    CONSTANT    6000.00000000
    CONSTANT    5950.00000000
    CONSTANT    5900.00000000
    CONSTANT    5850.00000000
    CONSTANT    5800.00000000
    CONSTANT    5750.00000000
    CONSTANT    5700.00000000
    CONSTANT    5650.00000000
    CONSTANT    5600.00000000
    CONSTANT    5550.00000000
    CONSTANT    5500.00000000
    CONSTANT    5450.00000000
    CONSTANT    5400.00000000
    CONSTANT    5350.00000000
    CONSTANT    5300.00000000
    CONSTANT    5250.00000000
    CONSTANT    5200.00000000
    CONSTANT    5150.00000000
    CONSTANT    5100.00000000
    CONSTANT    5050.00000000
    CONSTANT    5000.00000000
    CONSTANT    4950.00000000
    CONSTANT    4900.00000000
    CONSTANT    4850.00000000
    CONSTANT    4800.00000000
    CONSTANT    4750.00000000
    CONSTANT    4700.00000000
    CONSTANT    4650.00000000
    CONSTANT    4600.00000000
    CONSTANT    4550.00000000
    CONSTANT    4500.00000000
    CONSTANT    4450.00000000
    CONSTANT    4400.00000000
    CONSTANT    4350.00000000
    CONSTANT    4300.00000000
    CONSTANT    4250.00000000
    CONSTANT    4200.00000000
    CONSTANT    4150.00000000
    CONSTANT    4100.00000000
    CONSTANT    4050.00000000
    CONSTANT    4000.00000000
    CONSTANT    3950.00000000
    CONSTANT    3900.00000000
    CONSTANT    3850.00000000
    CONSTANT    3800.00000000
    CONSTANT    3750.00000000
    CONSTANT    3700.00000000
    CONSTANT    3650.00000000
    CONSTANT    3600.00000000
    CONSTANT    3550.00000000
    CONSTANT    3500.00000000
    CONSTANT    3450.00000000
    CONSTANT    3400.00000000
    CONSTANT    3350.00000000
    CONSTANT    3300.00000000
    CONSTANT    3250.00000000
    CONSTANT    3200.00000000
    CONSTANT    3150.00000000
    CONSTANT    3100.00000000
    CONSTANT    3050.00000000
    CONSTANT    3000.00000000
    CONSTANT    2950.00000000
    CONSTANT    2900.00000000
    CONSTANT    2850.00000000
    CONSTANT    2800.00000000
    CONSTANT    2750.00000000
    CONSTANT    2700.00000000
    CONSTANT    2650.00000000
    CONSTANT    2600.00000000
    CONSTANT    2550.00000000
    CONSTANT    2500.00000000
    CONSTANT    2450.00000000
    CONSTANT    2400.00000000
    CONSTANT    2350.00000000
    CONSTANT    2300.00000000
    CONSTANT    2250.00000000
    CONSTANT    2200.00000000
    CONSTANT    2150.00000000
    CONSTANT    2100.00000000
    CONSTANT    2050.00000000
    CONSTANT    2000.00000000
    CONSTANT    1950.00000000
    CONSTANT    1900.00000000
    CONSTANT    1850.00000000
    CONSTANT    1800.00000000
    CONSTANT    1750.00000000
    CONSTANT    1700.00000000
    CONSTANT    1650.00000000
    CONSTANT    1600.00000000
    CONSTANT    1550.00000000
    CONSTANT    1500.00000000
    CONSTANT    1450.00000000
    CONSTANT    1400.00000000
    CONSTANT    1350.00000000
    CONSTANT    1300.00000000
    CONSTANT    1250.00000000
    CONSTANT    1200.00000000
    CONSTANT    1150.00000000
    CONSTANT    1100.00000000
    CONSTANT    1050.00000000
    CONSTANT    1000.00000000
    CONSTANT     950.00000000
    CONSTANT     900.00000000
    CONSTANT     850.00000000
    CONSTANT     800.00000000
    CONSTANT     750.00000000
    CONSTANT     700.00000000
    CONSTANT     650.00000000
    CONSTANT     600.00000000
    CONSTANT     550.00000000
    CONSTANT     500.00000000
    CONSTANT     450.00000000
    CONSTANT     400.00000000
    CONSTANT     350.00000000
    CONSTANT     300.00000000
    CONSTANT     250.00000000
    CONSTANT     200.00000000
    CONSTANT     150.00000000
    CONSTANT     100.00000000
    CONSTANT      50.00000000
    CONSTANT       0.00000000
END griddata

