# File generated by Flopy version 3.10.0.dev2 on 05/09/2025 at 15:29:28.
BEGIN options
  BUDGET  FILEOUT  toth.bud
  HEAD  FILEOUT  toth.hds
END options

BEGIN period  1
  SAVE  HEAD  ALL
  SAVE  BUDGET  ALL
  PRINT  HEAD  ALL
  PRINT  BUDGET  ALL
END period  1

