# File generated by Flopy version 3.10.0.dev2 on 05/09/2025 at 15:29:28.
BEGIN options
  SAVE_FLOWS
END options

BEGIN packages
  DIS6  toth.dis  dis
  IC6  toth.ic  ic
  NPF6  toth.npf  npf
  CHD6  toth.chd  chd_0
  OC6  toth.oc  oc
END packages

