# File generated by Flopy version 3.10.0.dev2 on 05/09/2025 at 15:27:53.
BEGIN options
END options

BEGIN dimensions
  MAXBOUND  45
END dimensions

BEGIN period  1
  1 1 1 4.97500000E+01
  1 2 1 4.97500000E+01
  1 3 1 4.97500000E+01
  1 4 1 4.97500000E+01
  1 5 1 4.97500000E+01
  1 6 1 4.97500000E+01
  1 7 1 4.97500000E+01
  1 8 1 4.97500000E+01
  1 9 1 4.97500000E+01
  1 10 1 4.97500000E+01
  1 11 1 4.97500000E+01
  1 12 1 4.97500000E+01
  1 13 1 4.97500000E+01
  1 14 1 4.97500000E+01
  1 15 1 4.97500000E+01
  2 1 1 4.97500000E+01
  2 2 1 4.97500000E+01
  2 3 1 4.97500000E+01
  2 4 1 4.97500000E+01
  2 5 1 4.97500000E+01
  2 6 1 4.97500000E+01
  2 7 1 4.97500000E+01
  2 8 1 4.97500000E+01
  2 9 1 4.97500000E+01
  2 10 1 4.97500000E+01
  2 11 1 4.97500000E+01
  2 12 1 4.97500000E+01
  2 13 1 4.97500000E+01
  2 14 1 4.97500000E+01
  2 15 1 4.97500000E+01
  3 1 1 4.97500000E+01
  3 2 1 4.97500000E+01
  3 3 1 4.97500000E+01
  3 4 1 4.97500000E+01
  3 5 1 4.97500000E+01
  3 6 1 4.97500000E+01
  3 7 1 4.97500000E+01
  3 8 1 4.97500000E+01
  3 9 1 4.97500000E+01
  3 10 1 4.97500000E+01
  3 11 1 4.97500000E+01
  3 12 1 4.97500000E+01
  3 13 1 4.97500000E+01
  3 14 1 4.97500000E+01
  3 15 1 4.97500000E+01
END period  1

