# File generated by Flopy version 3.10.0.dev2 on 05/09/2025 at 15:27:53.
BEGIN options
  SAVE_FLOWS
  NEWTON
END options

BEGIN packages
  DIS6  gwf-lgr-child.dis  dis
  IC6  gwf-lgr-child.ic  ic
  NPF6  gwf-lgr-child.npf  npf
  OC6  gwf-lgr-child.oc  oc
  SFR6  gwf-lgr-child.sfr  sfr-child
END packages

