# File generated by Flopy version 3.10.0.dev2 on 05/09/2025 at 15:27:53.
BEGIN options
END options

BEGIN dimensions
  NLAY  6
  NROW  15
  NCOL  18
END dimensions

BEGIN griddata
  delr
    INTERNAL  FACTOR  1.0
        34.31333415      34.31333415      34.31333415      34.31333415      34.31333415      34.31333415      34.31333415      34.31333415      34.31333415      34.31333415      34.31333415      34.31333415      34.31333415      34.31333415      34.31333415      34.31333415      34.31333415      34.31333415
  delc
    INTERNAL  FACTOR  1.0
        22.87555440      22.87555440      22.87555440      22.87555440      22.87555440      22.87555440      22.87555440      22.87555440      22.87555440      22.87555440      22.87555440      22.87555440      22.87555440      22.87555440      22.87555440
  top
    INTERNAL  FACTOR  1.0
        49.28599930      49.28599930      49.28599930      48.92900085      48.92900085      48.92900085      48.57099915      48.57099915      48.57099915      48.21400070      48.21400070      48.21400070      47.85699844      47.85699844      47.85699844      47.50000000      47.50000000      47.50000000
        49.28599930      49.28599930      49.28599930      48.92900085      48.92900085      48.92900085      48.57099915      48.57099915      48.57099915      48.21400070      48.21400070      48.21400070      47.85699844      47.85699844      47.85699844      47.50000000      47.50000000      47.50000000
        49.28599930      49.28599930      49.28599930      48.92900085      48.92900085      48.92900085      48.57099915      48.57099915      48.57099915      48.21400070      48.21400070      48.21400070      47.85699844      47.85699844      47.85699844      47.50000000      47.50000000      47.50000000
        49.28599930      49.28599930      49.28599930      48.92900085      48.92900085      48.92900085      48.57099915      48.57099915      48.57099915      48.21400070      48.21400070      48.21400070      47.85699844      47.85699844      47.85699844      47.50000000      47.50000000      47.50000000
        49.28599930      49.28599930      49.28599930      48.92900085      48.92900085      48.92900085      48.57099915      48.57099915      48.57099915      48.21400070      48.21400070      48.21400070      47.85699844      47.85699844      47.85699844      47.50000000      47.50000000      47.50000000
        49.28599930      49.28599930      49.28599930      48.92900085      48.92900085      48.92900085      48.57099915      48.57099915      48.57099915      48.21400070      48.21400070      48.21400070      47.85699844      47.85699844      47.85699844      47.50000000      47.50000000      47.50000000
        49.28599930      49.28599930      49.28599930      48.92900085      48.92900085      48.92900085      48.57099915      48.57099915      48.57099915      48.21400070      48.21400070      48.21400070      47.85699844      47.85699844      47.85699844      47.50000000      47.50000000      47.50000000
        49.28599930      49.28599930      49.28599930      48.92900085      48.92900085      48.92900085      48.57099915      48.57099915      48.57099915      48.21400070      48.21400070      48.21400070      47.85699844      47.85699844      47.85699844      47.50000000      47.50000000      47.50000000
        49.28599930      49.28599930      49.28599930      48.92900085      48.92900085      48.92900085      48.57099915      48.57099915      48.57099915      48.21400070      48.21400070      48.21400070      47.85699844      47.85699844      47.85699844      47.50000000      47.50000000      47.50000000
        49.28599930      49.28599930      49.28599930      48.92900085      48.92900085      48.92900085      48.57099915      48.57099915      48.57099915      48.21400070      48.21400070      48.21400070      47.85699844      47.85699844      47.85699844      47.50000000      47.50000000      47.50000000
        49.28599930      49.28599930      49.28599930      48.92900085      48.92900085      48.92900085      48.57099915      48.57099915      48.57099915      48.21400070      48.21400070      48.21400070      47.85699844      47.85699844      47.85699844      47.50000000      47.50000000      47.50000000
        49.28599930      49.28599930      49.28599930      48.92900085      48.92900085      48.92900085      48.57099915      48.57099915      48.57099915      48.21400070      48.21400070      48.21400070      47.85699844      47.85699844      47.85699844      47.50000000      47.50000000      47.50000000
        49.28599930      49.28599930      49.28599930      48.92900085      48.92900085      48.92900085      48.57099915      48.57099915      48.57099915      48.21400070      48.21400070      48.21400070      47.85699844      47.85699844      47.85699844      47.50000000      47.50000000      47.50000000
        49.28599930      49.28599930      49.28599930      48.92900085      48.92900085      48.92900085      48.57099915      48.57099915      48.57099915      48.21400070      48.21400070      48.21400070      47.85699844      47.85699844      47.85699844      47.50000000      47.50000000      47.50000000
        49.28599930      49.28599930      49.28599930      48.92900085      48.92900085      48.92900085      48.57099915      48.57099915      48.57099915      48.21400070      48.21400070      48.21400070      47.85699844      47.85699844      47.85699844      47.50000000      47.50000000      47.50000000
  botm  LAYERED
    INTERNAL  FACTOR  1.0
          43.73033269      43.73033269      43.73033269      43.37333425      43.37333425      43.37333425      43.01533254      43.01533254      43.01533254      42.65833410      42.65833410      42.65833410      42.30133247      42.30133247      42.30133247      41.94433339      41.94433339      41.94433339
          43.73033269      43.73033269      43.73033269      43.37333425      43.37333425      43.37333425      43.01533254      43.01533254      43.01533254      42.65833410      42.65833410      42.65833410      42.30133247      42.30133247      42.30133247      41.94433339      41.94433339      41.94433339
          43.73033269      43.73033269      43.73033269      43.37333425      43.37333425      43.37333425      43.01533254      43.01533254      43.01533254      42.65833410      42.65833410      42.65833410      42.30133247      42.30133247      42.30133247      41.94433339      41.94433339      41.94433339
          43.73033269      43.73033269      43.73033269      43.37333425      43.37333425      43.37333425      43.01533254      43.01533254      43.01533254      42.65833410      42.65833410      42.65833410      42.30133247      42.30133247      42.30133247      41.94433339      41.94433339      41.94433339
          43.73033269      43.73033269      43.73033269      43.37333425      43.37333425      43.37333425      43.01533254      43.01533254      43.01533254      42.65833410      42.65833410      42.65833410      42.30133247      42.30133247      42.30133247      41.94433339      41.94433339      41.94433339
          43.73033269      43.73033269      43.73033269      43.37333425      43.37333425      43.37333425      43.01533254      43.01533254      43.01533254      42.65833410      42.65833410      42.65833410      42.30133247      42.30133247      42.30133247      41.94433339      41.94433339      41.94433339
          43.73033269      43.73033269      43.73033269      43.37333425      43.37333425      43.37333425      43.01533254      43.01533254      43.01533254      42.65833410      42.65833410      42.65833410      42.30133247      42.30133247      42.30133247      41.94433339      41.94433339      41.94433339
          43.73033269      43.73033269      43.73033269      43.37333425      43.37333425      43.37333425      43.01533254      43.01533254      43.01533254      42.65833410      42.65833410      42.65833410      42.30133247      42.30133247      42.30133247      41.94433339      41.94433339      41.94433339
          43.73033269      43.73033269      43.73033269      43.37333425      43.37333425      43.37333425      43.01533254      43.01533254      43.01533254      42.65833410      42.65833410      42.65833410      42.30133247      42.30133247      42.30133247      41.94433339      41.94433339      41.94433339
          43.73033269      43.73033269      43.73033269      43.37333425      43.37333425      43.37333425      43.01533254      43.01533254      43.01533254      42.65833410      42.65833410      42.65833410      42.30133247      42.30133247      42.30133247      41.94433339      41.94433339      41.94433339
          43.73033269      43.73033269      43.73033269      43.37333425      43.37333425      43.37333425      43.01533254      43.01533254      43.01533254      42.65833410      42.65833410      42.65833410      42.30133247      42.30133247      42.30133247      41.94433339      41.94433339      41.94433339
          43.73033269      43.73033269      43.73033269      43.37333425      43.37333425      43.37333425      43.01533254      43.01533254      43.01533254      42.65833410      42.65833410      42.65833410      42.30133247      42.30133247      42.30133247      41.94433339      41.94433339      41.94433339
          43.73033269      43.73033269      43.73033269      43.37333425      43.37333425      43.37333425      43.01533254      43.01533254      43.01533254      42.65833410      42.65833410      42.65833410      42.30133247      42.30133247      42.30133247      41.94433339      41.94433339      41.94433339
          43.73033269      43.73033269      43.73033269      43.37333425      43.37333425      43.37333425      43.01533254      43.01533254      43.01533254      42.65833410      42.65833410      42.65833410      42.30133247      42.30133247      42.30133247      41.94433339      41.94433339      41.94433339
          43.73033269      43.73033269      43.73033269      43.37333425      43.37333425      43.37333425      43.01533254      43.01533254      43.01533254      42.65833410      42.65833410      42.65833410      42.30133247      42.30133247      42.30133247      41.94433339      41.94433339      41.94433339
    INTERNAL  FACTOR  1.0
          38.17466609      38.17466609      38.17466609      37.81766764      37.81766764      37.81766764      37.45966593      37.45966593      37.45966593      37.10266749      37.10266749      37.10266749      36.74566650      36.74566650      36.74566650      36.38866679      36.38866679      36.38866679
          38.17466609      38.17466609      38.17466609      37.81766764      37.81766764      37.81766764      37.45966593      37.45966593      37.45966593      37.10266749      37.10266749      37.10266749      36.74566650      36.74566650      36.74566650      36.38866679      36.38866679      36.38866679
          38.17466609      38.17466609      38.17466609      37.81766764      37.81766764      37.81766764      37.45966593      37.45966593      37.45966593      37.10266749      37.10266749      37.10266749      36.74566650      36.74566650      36.74566650      36.38866679      36.38866679      36.38866679
          38.17466609      38.17466609      38.17466609      37.81766764      37.81766764      37.81766764      37.45966593      37.45966593      37.45966593      37.10266749      37.10266749      37.10266749      36.74566650      36.74566650      36.74566650      36.38866679      36.38866679      36.38866679
          38.17466609      38.17466609      38.17466609      37.81766764      37.81766764      37.81766764      37.45966593      37.45966593      37.45966593      37.10266749      37.10266749      37.10266749      36.74566650      36.74566650      36.74566650      36.38866679      36.38866679      36.38866679
          38.17466609      38.17466609      38.17466609      37.81766764      37.81766764      37.81766764      37.45966593      37.45966593      37.45966593      37.10266749      37.10266749      37.10266749      36.74566650      36.74566650      36.74566650      36.38866679      36.38866679      36.38866679
          38.17466609      38.17466609      38.17466609      37.81766764      37.81766764      37.81766764      37.45966593      37.45966593      37.45966593      37.10266749      37.10266749      37.10266749      36.74566650      36.74566650      36.74566650      36.38866679      36.38866679      36.38866679
          38.17466609      38.17466609      38.17466609      37.81766764      37.81766764      37.81766764      37.45966593      37.45966593      37.45966593      37.10266749      37.10266749      37.10266749      36.74566650      36.74566650      36.74566650      36.38866679      36.38866679      36.38866679
          38.17466609      38.17466609      38.17466609      37.81766764      37.81766764      37.81766764      37.45966593      37.45966593      37.45966593      37.10266749      37.10266749      37.10266749      36.74566650      36.74566650      36.74566650      36.38866679      36.38866679      36.38866679
          38.17466609      38.17466609      38.17466609      37.81766764      37.81766764      37.81766764      37.45966593      37.45966593      37.45966593      37.10266749      37.10266749      37.10266749      36.74566650      36.74566650      36.74566650      36.38866679      36.38866679      36.38866679
          38.17466609      38.17466609      38.17466609      37.81766764      37.81766764      37.81766764      37.45966593      37.45966593      37.45966593      37.10266749      37.10266749      37.10266749      36.74566650      36.74566650      36.74566650      36.38866679      36.38866679      36.38866679
          38.17466609      38.17466609      38.17466609      37.81766764      37.81766764      37.81766764      37.45966593      37.45966593      37.45966593      37.10266749      37.10266749      37.10266749      36.74566650      36.74566650      36.74566650      36.38866679      36.38866679      36.38866679
          38.17466609      38.17466609      38.17466609      37.81766764      37.81766764      37.81766764      37.45966593      37.45966593      37.45966593      37.10266749      37.10266749      37.10266749      36.74566650      36.74566650      36.74566650      36.38866679      36.38866679      36.38866679
          38.17466609      38.17466609      38.17466609      37.81766764      37.81766764      37.81766764      37.45966593      37.45966593      37.45966593      37.10266749      37.10266749      37.10266749      36.74566650      36.74566650      36.74566650      36.38866679      36.38866679      36.38866679
          38.17466609      38.17466609      38.17466609      37.81766764      37.81766764      37.81766764      37.45966593      37.45966593      37.45966593      37.10266749      37.10266749      37.10266749      36.74566650      36.74566650      36.74566650      36.38866679      36.38866679      36.38866679
    INTERNAL  FACTOR  1.0
          32.61899948      32.61899948      32.61899948      32.26200104      32.26200104      32.26200104      31.90399933      31.90399933      31.90399933      31.54700089      31.54700089      31.54700089      31.19000053      31.19000053      31.19000053      30.83300018      30.83300018      30.83300018
          32.61899948      32.61899948      32.61899948      32.26200104      32.26200104      32.26200104      31.90399933      31.90399933      31.90399933      31.54700089      31.54700089      31.54700089      31.19000053      31.19000053      31.19000053      30.83300018      30.83300018      30.83300018
          32.61899948      32.61899948      32.61899948      32.26200104      32.26200104      32.26200104      31.90399933      31.90399933      31.90399933      31.54700089      31.54700089      31.54700089      31.19000053      31.19000053      31.19000053      30.83300018      30.83300018      30.83300018
          32.61899948      32.61899948      32.61899948      32.26200104      32.26200104      32.26200104      31.90399933      31.90399933      31.90399933      31.54700089      31.54700089      31.54700089      31.19000053      31.19000053      31.19000053      30.83300018      30.83300018      30.83300018
          32.61899948      32.61899948      32.61899948      32.26200104      32.26200104      32.26200104      31.90399933      31.90399933      31.90399933      31.54700089      31.54700089      31.54700089      31.19000053      31.19000053      31.19000053      30.83300018      30.83300018      30.83300018
          32.61899948      32.61899948      32.61899948      32.26200104      32.26200104      32.26200104      31.90399933      31.90399933      31.90399933      31.54700089      31.54700089      31.54700089      31.19000053      31.19000053      31.19000053      30.83300018      30.83300018      30.83300018
          32.61899948      32.61899948      32.61899948      32.26200104      32.26200104      32.26200104      31.90399933      31.90399933      31.90399933      31.54700089      31.54700089      31.54700089      31.19000053      31.19000053      31.19000053      30.83300018      30.83300018      30.83300018
          32.61899948      32.61899948      32.61899948      32.26200104      32.26200104      32.26200104      31.90399933      31.90399933      31.90399933      31.54700089      31.54700089      31.54700089      31.19000053      31.19000053      31.19000053      30.83300018      30.83300018      30.83300018
          32.61899948      32.61899948      32.61899948      32.26200104      32.26200104      32.26200104      31.90399933      31.90399933      31.90399933      31.54700089      31.54700089      31.54700089      31.19000053      31.19000053      31.19000053      30.83300018      30.83300018      30.83300018
          32.61899948      32.61899948      32.61899948      32.26200104      32.26200104      32.26200104      31.90399933      31.90399933      31.90399933      31.54700089      31.54700089      31.54700089      31.19000053      31.19000053      31.19000053      30.83300018      30.83300018      30.83300018
          32.61899948      32.61899948      32.61899948      32.26200104      32.26200104      32.26200104      31.90399933      31.90399933      31.90399933      31.54700089      31.54700089      31.54700089      31.19000053      31.19000053      31.19000053      30.83300018      30.83300018      30.83300018
          32.61899948      32.61899948      32.61899948      32.26200104      32.26200104      32.26200104      31.90399933      31.90399933      31.90399933      31.54700089      31.54700089      31.54700089      31.19000053      31.19000053      31.19000053      30.83300018      30.83300018      30.83300018
          32.61899948      32.61899948      32.61899948      32.26200104      32.26200104      32.26200104      31.90399933      31.90399933      31.90399933      31.54700089      31.54700089      31.54700089      31.19000053      31.19000053      31.19000053      30.83300018      30.83300018      30.83300018
          32.61899948      32.61899948      32.61899948      32.26200104      32.26200104      32.26200104      31.90399933      31.90399933      31.90399933      31.54700089      31.54700089      31.54700089      31.19000053      31.19000053      31.19000053      30.83300018      30.83300018      30.83300018
          32.61899948      32.61899948      32.61899948      32.26200104      32.26200104      32.26200104      31.90399933      31.90399933      31.90399933      31.54700089      31.54700089      31.54700089      31.19000053      31.19000053      31.19000053      30.83300018      30.83300018      30.83300018
    INTERNAL  FACTOR  1.0
          27.06366634      27.06366634      27.06366634      26.70666726      26.70666726      26.70666726      26.34866619      26.34866619      26.34866619      25.99166711      25.99166711      25.99166711      25.63466708      25.63466708      25.63466708      25.27766673      25.27766673      25.27766673
          27.06366634      27.06366634      27.06366634      26.70666726      26.70666726      26.70666726      26.34866619      26.34866619      26.34866619      25.99166711      25.99166711      25.99166711      25.63466708      25.63466708      25.63466708      25.27766673      25.27766673      25.27766673
          27.06366634      27.06366634      27.06366634      26.70666726      26.70666726      26.70666726      26.34866619      26.34866619      26.34866619      25.99166711      25.99166711      25.99166711      25.63466708      25.63466708      25.63466708      25.27766673      25.27766673      25.27766673
          27.06366634      27.06366634      27.06366634      26.70666726      26.70666726      26.70666726      26.34866619      26.34866619      26.34866619      25.99166711      25.99166711      25.99166711      25.63466708      25.63466708      25.63466708      25.27766673      25.27766673      25.27766673
          27.06366634      27.06366634      27.06366634      26.70666726      26.70666726      26.70666726      26.34866619      26.34866619      26.34866619      25.99166711      25.99166711      25.99166711      25.63466708      25.63466708      25.63466708      25.27766673      25.27766673      25.27766673
          27.06366634      27.06366634      27.06366634      26.70666726      26.70666726      26.70666726      26.34866619      26.34866619      26.34866619      25.99166711      25.99166711      25.99166711      25.63466708      25.63466708      25.63466708      25.27766673      25.27766673      25.27766673
          27.06366634      27.06366634      27.06366634      26.70666726      26.70666726      26.70666726      26.34866619      26.34866619      26.34866619      25.99166711      25.99166711      25.99166711      25.63466708      25.63466708      25.63466708      25.27766673      25.27766673      25.27766673
          27.06366634      27.06366634      27.06366634      26.70666726      26.70666726      26.70666726      26.34866619      26.34866619      26.34866619      25.99166711      25.99166711      25.99166711      25.63466708      25.63466708      25.63466708      25.27766673      25.27766673      25.27766673
          27.06366634      27.06366634      27.06366634      26.70666726      26.70666726      26.70666726      26.34866619      26.34866619      26.34866619      25.99166711      25.99166711      25.99166711      25.63466708      25.63466708      25.63466708      25.27766673      25.27766673      25.27766673
          27.06366634      27.06366634      27.06366634      26.70666726      26.70666726      26.70666726      26.34866619      26.34866619      26.34866619      25.99166711      25.99166711      25.99166711      25.63466708      25.63466708      25.63466708      25.27766673      25.27766673      25.27766673
          27.06366634      27.06366634      27.06366634      26.70666726      26.70666726      26.70666726      26.34866619      26.34866619      26.34866619      25.99166711      25.99166711      25.99166711      25.63466708      25.63466708      25.63466708      25.27766673      25.27766673      25.27766673
          27.06366634      27.06366634      27.06366634      26.70666726      26.70666726      26.70666726      26.34866619      26.34866619      26.34866619      25.99166711      25.99166711      25.99166711      25.63466708      25.63466708      25.63466708      25.27766673      25.27766673      25.27766673
          27.06366634      27.06366634      27.06366634      26.70666726      26.70666726      26.70666726      26.34866619      26.34866619      26.34866619      25.99166711      25.99166711      25.99166711      25.63466708      25.63466708      25.63466708      25.27766673      25.27766673      25.27766673
          27.06366634      27.06366634      27.06366634      26.70666726      26.70666726      26.70666726      26.34866619      26.34866619      26.34866619      25.99166711      25.99166711      25.99166711      25.63466708      25.63466708      25.63466708      25.27766673      25.27766673      25.27766673
          27.06366634      27.06366634      27.06366634      26.70666726      26.70666726      26.70666726      26.34866619      26.34866619      26.34866619      25.99166711      25.99166711      25.99166711      25.63466708      25.63466708      25.63466708      25.27766673      25.27766673      25.27766673
    INTERNAL  FACTOR  1.0
          21.50833321      21.50833321      21.50833321      21.15133349      21.15133349      21.15133349      20.79333305      20.79333305      20.79333305      20.43633334      20.43633334      20.43633334      20.07933362      20.07933362      20.07933362      19.72233327      19.72233327      19.72233327
          21.50833321      21.50833321      21.50833321      21.15133349      21.15133349      21.15133349      20.79333305      20.79333305      20.79333305      20.43633334      20.43633334      20.43633334      20.07933362      20.07933362      20.07933362      19.72233327      19.72233327      19.72233327
          21.50833321      21.50833321      21.50833321      21.15133349      21.15133349      21.15133349      20.79333305      20.79333305      20.79333305      20.43633334      20.43633334      20.43633334      20.07933362      20.07933362      20.07933362      19.72233327      19.72233327      19.72233327
          21.50833321      21.50833321      21.50833321      21.15133349      21.15133349      21.15133349      20.79333305      20.79333305      20.79333305      20.43633334      20.43633334      20.43633334      20.07933362      20.07933362      20.07933362      19.72233327      19.72233327      19.72233327
          21.50833321      21.50833321      21.50833321      21.15133349      21.15133349      21.15133349      20.79333305      20.79333305      20.79333305      20.43633334      20.43633334      20.43633334      20.07933362      20.07933362      20.07933362      19.72233327      19.72233327      19.72233327
          21.50833321      21.50833321      21.50833321      21.15133349      21.15133349      21.15133349      20.79333305      20.79333305      20.79333305      20.43633334      20.43633334      20.43633334      20.07933362      20.07933362      20.07933362      19.72233327      19.72233327      19.72233327
          21.50833321      21.50833321      21.50833321      21.15133349      21.15133349      21.15133349      20.79333305      20.79333305      20.79333305      20.43633334      20.43633334      20.43633334      20.07933362      20.07933362      20.07933362      19.72233327      19.72233327      19.72233327
          21.50833321      21.50833321      21.50833321      21.15133349      21.15133349      21.15133349      20.79333305      20.79333305      20.79333305      20.43633334      20.43633334      20.43633334      20.07933362      20.07933362      20.07933362      19.72233327      19.72233327      19.72233327
          21.50833321      21.50833321      21.50833321      21.15133349      21.15133349      21.15133349      20.79333305      20.79333305      20.79333305      20.43633334      20.43633334      20.43633334      20.07933362      20.07933362      20.07933362      19.72233327      19.72233327      19.72233327
          21.50833321      21.50833321      21.50833321      21.15133349      21.15133349      21.15133349      20.79333305      20.79333305      20.79333305      20.43633334      20.43633334      20.43633334      20.07933362      20.07933362      20.07933362      19.72233327      19.72233327      19.72233327
          21.50833321      21.50833321      21.50833321      21.15133349      21.15133349      21.15133349      20.79333305      20.79333305      20.79333305      20.43633334      20.43633334      20.43633334      20.07933362      20.07933362      20.07933362      19.72233327      19.72233327      19.72233327
          21.50833321      21.50833321      21.50833321      21.15133349      21.15133349      21.15133349      20.79333305      20.79333305      20.79333305      20.43633334      20.43633334      20.43633334      20.07933362      20.07933362      20.07933362      19.72233327      19.72233327      19.72233327
          21.50833321      21.50833321      21.50833321      21.15133349      21.15133349      21.15133349      20.79333305      20.79333305      20.79333305      20.43633334      20.43633334      20.43633334      20.07933362      20.07933362      20.07933362      19.72233327      19.72233327      19.72233327
          21.50833321      21.50833321      21.50833321      21.15133349      21.15133349      21.15133349      20.79333305      20.79333305      20.79333305      20.43633334      20.43633334      20.43633334      20.07933362      20.07933362      20.07933362      19.72233327      19.72233327      19.72233327
          21.50833321      21.50833321      21.50833321      21.15133349      21.15133349      21.15133349      20.79333305      20.79333305      20.79333305      20.43633334      20.43633334      20.43633334      20.07933362      20.07933362      20.07933362      19.72233327      19.72233327      19.72233327
    INTERNAL  FACTOR  1.0
          15.95300007      15.95300007      15.95300007      15.59599972      15.59599972      15.59599972      15.23799992      15.23799992      15.23799992      14.88099957      14.88099957      14.88099957      14.52400017      14.52400017      14.52400017      14.16699982      14.16699982      14.16699982
          15.95300007      15.95300007      15.95300007      15.59599972      15.59599972      15.59599972      15.23799992      15.23799992      15.23799992      14.88099957      14.88099957      14.88099957      14.52400017      14.52400017      14.52400017      14.16699982      14.16699982      14.16699982
          15.95300007      15.95300007      15.95300007      15.59599972      15.59599972      15.59599972      15.23799992      15.23799992      15.23799992      14.88099957      14.88099957      14.88099957      14.52400017      14.52400017      14.52400017      14.16699982      14.16699982      14.16699982