# File generated by Flopy version 3.10.0.dev2 on 05/09/2025 at 15:27:53.
BEGIN options
  CONTINUE
END options

BEGIN timing
  TDIS6  ex-gwf-lgr.tdis
END timing

BEGIN models
  gwf6  gwf-lgr-parent.nam  gwf-lgr-parent
  gwf6  gwf-lgr-child.nam  gwf-lgr-child
END models

BEGIN exchanges
  GWF6-GWF6  lgr.exg  gwf-lgr-parent  gwf-lgr-child
END exchanges

BEGIN solutiongroup  1
  ims6  gwf-lgr-parent.ims  gwf-lgr-parent  gwf-lgr-child
END solutiongroup  1

