# File generated by Flopy version 3.10.0.dev2 on 05/09/2025 at 15:27:38.
BEGIN options
  SAVE_SPECIFIC_DISCHARGE
END options

BEGIN griddata
  icelltype
    CONSTANT  0
  k
    CONSTANT  1.00000000E+06
END griddata

