# Name file for MT3DMS, generated by Flopy version 3.10.0.dev2.
LIST              16  p03-mt.list
FTL               10  mt3d_link.ftl 
BTN               31  p03-mt.btn
ADV               32  p03-mt.adv
DSP               33  p03-mt.dsp
SSM               34  p03-mt.ssm
GCG               35  p03-mt.gcg
