# File generated by Flopy version 3.10.0.dev2 on 05/09/2025 at 15:28:31.
BEGIN options
  TIME_UNITS  days
END options

BEGIN dimensions
  NPER  2
END dimensions

BEGIN perioddata
    1825.00000000  365       1.00000000
    5475.00000000  1095       1.00000000
END perioddata

