# File generated by Flopy version 3.10.0.dev2 on 05/09/2025 at 15:28:31.
BEGIN options
  SAVE_SPECIFIC_DISCHARGE
END options

BEGIN griddata
  icelltype  LAYERED
    CONSTANT  1
    CONSTANT  1
    CONSTANT  1
    CONSTANT  1
    CONSTANT  1
    CONSTANT  1
    CONSTANT  0
    CONSTANT  0
    CONSTANT  0
    CONSTANT  0
    CONSTANT  0
    CONSTANT  0
    CONSTANT  0
    CONSTANT  0
    CONSTANT  0
    CONSTANT  0
    CONSTANT  0
    CONSTANT  0
    CONSTANT  0
    CONSTANT  0
    CONSTANT  0
    CONSTANT  0
    CONSTANT  0
    CONSTANT  0
    CONSTANT  0
    CONSTANT  0
    CONSTANT  0
  k  LAYERED
    INTERNAL  FACTOR  1.0
           0.43200000       0.43200000       0.43200000       0.43200000       0.43200000       0.43200000       0.43200000       0.43200000       0.43200000       0.43200000       0.43200000       0.43200000       0.43200000       0.43200000       0.43200000       0.43200000       0.43200000       0.43200000       0.43200000       0.43200000       0.43200000       0.43200000       0.43200000       0.43200000       0.43200000       0.43200000       0.43200000       0.43200000       0.43200000       0.43200000       0.43200000       0.43200000       0.43200000       0.43200000       0.43200000       0.43200000       0.43200000       0.43200000       0.43200000       0.43200000       0.43200000       0.43200000       0.43200000       0.43200000       0.43200000       0.43200000       0.43200000       0.43200000       0.43200000       0.43200000
    INTERNAL  FACTOR  1.0
           0.43200000       0.43200000       0.43200000       0.43200000       0.43200000       0.43200000       0.43200000       0.43200000       0.43200000       0.43200000       0.43200000       0.43200000       0.43200000       0.43200000       0.43200000       0.43200000       0.43200000       0.43200000       0.43200000       0.43200000       0.43200000       0.43200000       0.43200000       0.43200000       0.43200000       0.43200000       0.43200000       0.43200000       0.43200000       0.43200000       0.43200000       0.43200000       0.43200000       0.43200000       0.43200000       0.43200000       0.43200000       0.43200000       0.43200000       0.43200000       0.43200000       0.43200000       0.43200000       0.43200000       0.43200000       0.43200000       0.43200000       0.43200000       0.43200000       0.43200000
    INTERNAL  FACTOR  1.0
           0.43200000       0.43200000       0.43200000       0.43200000       0.43200000       0.43200000       0.43200000       0.43200000       0.43200000       0.43200000       0.43200000       0.43200000       0.43200000       0.43200000       0.43200000       0.43200000       0.43200000       0.43200000       0.43200000       0.43200000       0.43200000       0.43200000       0.43200000       0.43200000       0.43200000       0.43200000       0.43200000       0.43200000       0.43200000       0.43200000       0.43200000       0.43200000       0.43200000       0.43200000       0.43200000       0.43200000       0.43200000       0.43200000       0.43200000       0.43200000       0.43200000       0.43200000       0.43200000       0.43200000       0.43200000       0.43200000       0.43200000       0.43200000       0.43200000       0.43200000
    INTERNAL  FACTOR  1.0
           0.43200000       0.43200000       0.43200000       0.43200000       0.43200000       0.43200000       0.43200000       0.43200000       0.43200000       0.43200000       0.43200000       0.43200000       0.43200000       0.43200000       0.43200000       0.43200000       0.43200000       0.43200000       0.43200000       0.43200000       0.43200000       0.43200000       0.43200000       0.43200000       0.43200000       0.43200000       0.43200000       0.43200000       0.43200000       0.43200000       0.43200000       0.43200000       0.43200000       0.43200000       0.43200000       0.43200000       0.43200000       0.43200000       0.43200000       0.43200000       0.43200000       0.43200000       0.43200000       0.43200000       0.43200000       0.43200000       0.43200000       0.43200000       0.43200000       0.43200000
    INTERNAL  FACTOR  1.0
           0.43200000       0.43200000       0.43200000       0.43200000       0.43200000       0.43200000       0.43200000       0.43200000       0.43200000       0.43200000       0.43200000       0.43200000       0.43200000       0.43200000       0.43200000       0.43200000       0.43200000       0.43200000       0.43200000       0.43200000       0.43200000       0.43200000       0.43200000       0.43200000       0.43200000       0.43200000       0.43200000       0.43200000       0.43200000       0.43200000       0.43200000       0.43200000       0.43200000       0.43200000       0.43200000       0.43200000       0.43200000       0.43200000       0.43200000       0.43200000       0.43200000       0.43200000       0.43200000       0.43200000       0.43200000       0.43200000       0.43200000       0.43200000       0.43200000       0.43200000
    INTERNAL  FACTOR  1.0
           0.43200000       0.43200000       0.43200000       0.43200000       0.43200000       0.43200000       0.43200000       0.43200000       0.43200000       0.43200000       0.43200000       0.43200000       0.43200000       0.43200000       0.43200000       0.43200000       0.43200000       0.43200000       0.43200000       0.43200000       0.43200000       0.43200000       0.43200000       0.43200000       0.43200000       0.43200000       0.43200000       0.43200000       0.43200000       0.43200000       0.43200000       0.43200000       0.43200000       0.43200000       0.43200000       0.43200000       0.43200000       0.43200000       0.43200000       0.43200000       0.43200000       0.43200000       0.43200000       0.43200000       0.43200000       0.43200000       0.43200000       0.43200000       0.43200000       0.43200000
    INTERNAL  FACTOR  1.0
           0.43200000       0.43200000       0.43200000       0.43200000       0.43200000       0.43200000       0.43200000       0.43200000       0.43200000       0.43200000       0.43200000       0.43200000       0.43200000       0.43200000       0.43200000       0.43200000       0.43200000       0.43200000       0.43200000       0.43200000       0.43200000       0.43200000       0.43200000       0.43200000       0.43200000       0.43200000       0.43200000       0.43200000       0.43200000       0.43200000       0.43200000       0.43200000       0.43200000       0.43200000       0.43200000       0.43200000       0.43200000       0.43200000       0.43200000       0.43200000       0.43200000       0.43200000       0.43200000       0.43200000       0.43200000       0.43200000       0.43200000       0.43200000       0.43200000       0.43200000
    INTERNAL  FACTOR  1.0
           0.43200000       0.43200000       0.43200000       0.43200000       0.43200000       0.43200000       0.43200000       0.43200000       0.43200000       0.43200000       0.43200000       0.43200000       0.43200000       0.43200000       0.43200000       0.43200000       0.43200000       0.43200000       0.43200000       0.43200000       0.43200000       0.43200000       0.43200000       0.43200000       0.43200000       0.43200000       0.43200000       0.43200000       0.43200000       0.43200000       0.43200000       0.43200000       0.43200000       0.43200000       0.43200000       0.43200000       0.43200000       0.43200000       0.43200000       0.43200000       0.43200000       0.43200000       0.43200000       0.43200000       0.43200000       0.43200000       0.43200000       0.43200000       0.43200000       0.43200000
    INTERNAL  FACTOR  1.0
           0.43200000       0.43200000       0.43200000       0.43200000       0.43200000       0.43200000       0.43200000       0.43200000       0.43200000       0.43200000       0.43200000       0.43200000       0.43200000       0.43200000       0.43200000       0.43200000       0.43200000       0.43200000       0.43200000       0.43200000       0.43200000       0.43200000       0.43200000       0.43200000       0.43200000       0.43200000       0.43200000       0.43200000       0.43200000       0.43200000       0.43200000       0.43200000       0.43200000       0.43200000       0.43200000       0.43200000       0.43200000       0.43200000       0.43200000       0.43200000       0.43200000       0.43200000       0.43200000       0.43200000       0.43200000       0.43200000       0.43200000       0.43200000       0.43200000       0.43200000
    INTERNAL  FACTOR  1.0
           0.43200000       0.43200000       0.43200000       0.43200000       0.43200000       0.43200000       0.43200000       0.43200000       0.43200000       0.43200000       0.43200000       0.43200000       0.43200000       0.43200000       0.43200000       0.43200000       0.43200000       0.43200000       0.43200000       0.43200000       0.43200000       0.43200000       0.43200000       0.43200000       0.43200000       0.43200000       0.43200000       0.43200000       0.43200000       0.43200000       0.43200000       0.43200000       0.43200000       0.43200000       0.43200000       0.43200000       0.43200000       0.43200000       0.43200000       0.43200000       0.43200000       0.43200000       0.43200000       0.43200000       0.43200000       0.43200000       0.43200000       0.43200000       0.43200000       0.43200000
    INTERNAL  FACTOR  1.0
           0.43200000       0.43200000       0.43200000       0.43200000       0.43200000       0.43200000       0.43200000       0.43200000       0.43200000       0.43200000       0.43200000       0.43200000       0.43200000       0.43200000       0.43200000       0.43200000       0.43200000       0.43200000       0.43200000       0.43200000       0.43200000       0.43200000       0.43200000       0.43200000       0.43200000       0.43200000       0.43200000       0.43200000       0.43200000       0.43200000       0.43200000       0.43200000       0.43200000       0.43200000       0.43200000       0.43200000       0.43200000       0.43200000       0.43200000       0.43200000       0.43200000       0.43200000       0.43200000       0.43200000       0.43200000       0.43200000       0.43200000       0.43200000       0.43200000       0.43200000
    INTERNAL  FACTOR  1.0
           8.64000000       8.64000000       8.64000000       8.64000000       8.64000000       8.64000000       8.64000000       8.64000000       8.64000000       8.64000000       8.64000000       8.64000000       8.64000000       8.64000000       8.64000000       8.64000000       8.64000000       8.64000000       8.64000000       8.64000000       8.64000000       8.64000000       8.64000000       8.64000000       0.43200000       0.43200000       0.43200000       0.43200000       0.43200000       0.43200000       0.43200000       0.43200000       0.43200000       0.43200000       0.43200000       0.43200000       8.64000000       8.64000000       8.64000000       8.64000000       8.64000000       8.64000000       8.64000000       8.64000000       8.64000000       8.64000000       8.64000000       8.64000000       8.64000000       8.64000000
    INTERNAL  FACTOR  1.0
           8.64000000       8.64000000       8.64000000       8.64000000       8.64000000       8.64000000       8.64000000       8.64000000       8.64000000       8.64000000       8.64000000       8.64000000       8.64000000       8.64000000       8.64000000       8.64000000       8.64000000       8.64000000       8.64000000       8.64000000       8.64000000       8.64000000       8.64000000       8.64000000       0.43200000       0.43200000       0.43200000       0.43200000       0.43200000       0.43200000       0.43200000       0.43200000       0.43200000       0.43200000       0.43200000       0.43200000       8.64000000       8.64000000       8.64000000       8.64000000       8.64000000       8.64000000       8.64000000       8.64000000       8.64000000       8.64000000       8.64000000       8.64000000       8.64000000       8.64000000
    INTERNAL  FACTOR  1.0
           8.64000000       8.64000000       8.64000000       8.64000000       8.64000000       8.64000000       8.64000000       8.64000000       8.64000000       8.64000000       8.64000000       8.64000000       8.64000000       8.64000000       8.64000000       8.64000000       8.64000000       8.64000000       8.64000000       8.64000000       8.64000000       8.64000000       8.64000000       8.64000000       0.43200000       0.43200000       0.43200000       0.43200000       0.43200000       0.43200000       0.43200000       0.43200000       0.43200000       0.43200000       0.43200000       0.43200000       8.64000000       8.64000000       8.64000000       8.64000000       8.64000000       8.64000000       8.64000000       8.64000000       8.64000000       8.64000000       8.64000000       8.64000000       8.64000000       8.64000000
    INTERNAL  FACTOR  1.0
           8.64000000       8.64000000       8.64000000       8.64000000       8.64000000       8.64000000       8.64000000       8.64000000       8.64000000       8.64000000       8.64000000       8.64000000       8.64000000       8.64000000       8.64000000       8.64000000       8.64000000       8.64000000       8.64000000       8.64000000       8.64000000       8.64000000       8.64000000       8.64000000       0.43200000       0.43200000       0.43200000       0.43200000       0.43200000       0.43200000       0.43200000       0.43200000       0.43200000       0.43200000       0.43200000       0.43200000       8.64000000       8.64000000       8.64000000       8.64000000       8.64000000       8.64000000       8.64000000       8.64000000       8.64000000       8.64000000       8.64000000       8.64000000       8.64000000       8.64000000
    INTERNAL  FACTOR  1.0
           8.64000000       8.64000000       8.64000000       8.64000000       8.64000000       8.64000000       8.64000000       8.64000000       8.64000000       8.64000000       8.64000000       8.64000000       8.64000000       8.64000000       8.64000000       8.64000000       8.64000000       8.64000000       8.64000000       8.64000000       8.64000000       8.64000000       8.64000000       8.64000000       0.43200000       0.43200000       0.43200000       0.43200000       0.43200000       0.43200000       0.43200000       0.43200000       0.43200000       0.43200000       0.43200000       0.43200000       8.64000000       8.64000000       8.64000000       8.64000000       8.64000000       8.64000000       8.64000000       8.64000000       8.64000000       8.64000000       8.64000000       8.64000000       8.64000000       8.64000000
    INTERNAL  FACTOR  1.0
           8.64000000       8.64000000       8.64000000       8.64000000       8.64000000       8.64000000       8.64000000       8.64000000       8.64000000       8.64000000       8.64000000       8.64000000       8.64000000       8.64000000       8.64000000       8.64000000       8.64000000       8.64000000       8.64000000       8.64000000       8.64000000       8.64000000       8.64000000       8.64000000       0.43200000       0.43200000       0.43200000       0.43200000       0.43200000       0.43200000       0.43200000       0.43200000       0.43200000       0.43200000       0.43200000       0.43200000       8.64000000       8.64000000       8.64000000       8.64000000       8.64000000       8.64000000       8.64000000       8.64000000       8.64000000       8.64000000       8.64000000       8.64000000       8.64000000       8.64000000
    INTERNAL  FACTOR  1.0
           8.64000000       8.64000000       8.64000000       8.64000000       8.64000000       8.64000000       8.64000000       8.64000000       8.64000000       8.64000000       8.64000000       8.64000000       8.64000000       8.64000000       8.64000000       8.64000000       8.64000000       8.64000000       8.64000000       8.64000000       8.64000000       8.64000000       8.64000000       8.64000000       0.43200000       0.43200000       0.43200000       0.43200000       0.43200000       0.43200000       0.43200000       0.43200000       0.43200000       0.43200000       0.43200000       0.43200000       8.64000000       8.64000000       8.64000000       8.64000000       8.64000000       8.64000000       8.64000000       8.64000000       8.64000000       8.64000000       8.64000000       8.64000000       8.64000000       8.64000000
    INTERNAL  FACTOR  1.0
           8.64000000       8.64000000       8.64000000       8.64000000       8.64000000       8.64000000       8.64000000       8.64000000       8.64000000       8.64000000       8.64000000       8.64000000       8.64000000       8.64000000       8.64000000       8.64000000       8.64000000       8.64000000       8.64000000       8.64000000       8.64000000       8.64000000       8.64000000       8.64000000       0.43200000       0.43200000       0.43200000       0.43200000       0.43200000       0.43200000       0.43200000       0.43200000       0.43200000       0.43200000       0.43200000       0.43200000       8.64000000       8.64000000       8.64000000       8.64000000       8.64000000       8.64000000       8.64000000       8.64000000       8.64000000       8.64000000       8.64000000       8.64000000       8.64000000       8.64000000
    INTERNAL  FACTOR  1.0
           0.43200000       0.43200000       0.43200000       0.43200000       0.43200000       0.43200000       0.43200000       0.43200000       0.43200000       0.43200000       0.43200000       0.43200000       0.43200000       0.43200000       0.43200000       0.43200000       0.43200000       0.43200000       0.43200000       0.43200000       0.43200000       0.43200000       0.43200000       0.43200000       0.43200000       0.43200000       0.43200000       0.43200000       0.43200000       0.43200000       0.43200000       0.43200000       0.43200000       0.43200000       0.43200000       0.43200000       0.43200000       0.43200000       0.43200000       0.43200000       0.43200000       0.43200000       0.43200000       0.43200000       0.43200000       0.43200000       0.43200000       0.43200000       0.43200000       0.43200000
    INTERNAL  FACTOR  1.0
           0.43200000       0.43200000       0.43200000       0.43200000       0.43200000       0.43200000       0.43200000       0.43200000       0.43200000       0.43200000       0.43200000       0.43200000       0.43200000       0.43200000       0.43200000       0.43200000       0.43200000       0.43200000       0.43200000       0.43200000       0.43200000       0.43200000       0.43200000       0.43200000       0.43200000       0.43200000       0.43200000       0.43200000       0.43200000       0.43200000       0.43200000       0.43200000       0.43200000       0.43200000       0.43200000       0.43200000       0.43200000       0.43200000       0.43200000       0.43200000       0.43200000       0.43200000       0.43200000       0.43200000       0.43200000       0.43200000       0.43200000       0.43200000       0.43200000       0.43200000
    INTERNAL  FACTOR  1.0
           0.43200000       0.43200000       0.43200000       0.43200000       0.43200000       0.43200000       0.43200000       0.43200000       0.43200000       0.43200000       0.43200000       0.43200000       0.43200000       0.43200000       0.43200000       0.43200000       0.43200000       0.43200000       0.43200000       0.43200000       0.43200000       0.43200000       0.43200000       0.43200000       0.43200000       0.43200000       0.43200000       0.43200000       0.43200000       0.43200000       0.43200000       0.43200000       0.43200000       0.43200000       0.43200000       0.43200000       0.43200000       0.43200000       0.43200000       0.43200000       0.43200000       0.43200000       0.43200000       0.43200000       0.43200000       0.43200000       0.43200000       0.43200000       0.43200000       0.43200000
    INTERNAL  FACTOR  1.0
           0.43200000       0.43200000       0.43200000       0.43200000       0.43200000       0.43200000       0.43200000       0.43200000       0.43200000       0.43200000       0.43200000       0.43200000       0.43200000       0.43200000       0.43200000       0.43200000       0.43200000       0.43200000       0.43200000       0.43200000       0.43200000       0.43200000       0.43200000       0.43200000       0.43200000       0.43200000       0.43200000       0.43200000       0.43200000       0.43200000       0.43200000       0.43200000       0.43200000       0.43200000       0.43200000       0.43200000       0.43200000       0.43200000       0.43200000       0.43200000       0.43200000       0.43200000       0.43200000       0.43200000       0.43200000       0.43200000       0.43200000       0.43200000       0.43200000       0.43200000
    INTERNAL  FACTOR  1.0
           0.43200000       0.43200000       0.43200000       0.43200000       0.43200000       0.43200000       0.43200000       0.43200000       0.43200000       0.43200000       0.43200000       0.43200000       0.43200000       0.43200000       0.43200000       0.43200000       0.43200000       0.43200000       0.43200000       0.43200000       0.43200000       0.43200000       0.43200000       0.43200000       0.43200000       0.43200000       0.43200000       0.43200000       0.43200000       0.43200000       0.43200000       0.43200000       0.43200000       0.43200000       0.43200000       0.43200000       0.43200000       0.43200000       0.43200000       0.43200000       0.43200000       0.43200000       0.43200000       0.43200000       0.43200000       0.43200000       0.43200000       0.43200000       0.43200000       0.43200000
    INTERNAL  FACTOR  1.0
           0.43200000       0.43200000       0.43200000       0.43200000       0.43200000       0.43200000       0.43200000       0.43200000       0.43200000       0.43200000       0.43200000       0.43200000       0.43200000       0.43200000       0.43200000       0.43200000       0.43200000       0.43200000       0.43200000       0.43200000       0.43200000       0.43200000       0.43200000       0.43200000       0.43200000       0.43200000       0.43200000       0.43200000       0.43200000       0.43200000       0.43200000       0.43200000       0.43200000       0.43200000       0.43200000       0.43200000       0.43200000       0.43200000       0.43200000       0.43200000       0.43200000       0.43200000       0.43200000       0.43200000       0.43200000       0.43200000       0.43200000       0.43200000       0.43200000       0.43200000
    INTERNAL  FACTOR  1.0
           0.43200000       0.43200000       0.43200000       0.43200000       0.43200000       0.43200000       0.43200000       0.43200000       0.43200000       0.43200000       0.43200000       0.43200000       0.43200000       0.43200000       0.43200000       0.43200000       0.43200000       0.43200000       0.43200000       0.43200000       0.43200000       0.43200000       0.43200000       0.43200000       0.43200000       0.43200000       0.43200000       0.43200000       0.43200000       0.43200000       0.43200000       0.43200000       0.43200000       0.43200000       0.43200000       0.43200000       0.43200000       0.43200000       0.43200000       0.43200000       0.43200000       0.43200000       0.43200000       0.43200000       0.43200000       0.43200000       0.43200000       0.43200000       0.43200000       0.43200000
    INTERNAL  FACTOR  1.0
           0.43200000       0.43200000       0.43200000       0.43200000       0.43200000       0.43200000       0.43200000       0.43200000       0.43200000       0.43200000       0.43200000       0.43200000       0.43200000       0.43200000       0.43200000       0.43200000       0.43200000       0.43200000       0.43200000       0.43200000       0.43200000       0.43200000       0.43200000       0.43200000       0.43200000       0.43200000       0.43200000       0.43200000       0.43200000       0.43200000       0.43200000       0.43200000       0.43200000       0.43200000       0.43200000       0.43200000       0.43200000       0.43200000       0.43200000       0.43200000       0.43200000       0.43200000       0.43200000       0.43200000       0.43200000       0.43200000       0.43200000       0.43200000       0.43200000       0.43200000
  k33  LAYERED
    INTERNAL  FACTOR  1.0
           0.43200000       0.43200000       0.43200000       0.43200000       0.43200000       0.43200000       0.43200000       0.43200000       0.43200000       0.43200000       0.43200000       0.43200000       0.43200000       0.43200000       0.43200000       0.43200000       0.43200000       0.43200000       0.43200000       0.43200000       0.43200000       0.43200000       0.43200000       0.43200000       0.43200000       0.43200000       0.43200000       0.43200000       0.43200000       0.43200000       0.43200000       0.43200000       0.43200000       0.43200000       0.43200000       0.43200000       0.43200000       0.43200000       0.43200000       0.43200000       0.43200000       0.43200000       0.43200000       0.43200000       0.43200000       0.43200000       0.43200000       0.43200000       0.43200000       0.43200000
    INTERNAL  FACTOR  1.0
           0.43200000       0.43200000       0.43200000       0.43200000       0.43200000       0.43200000       0.43200000       0.43200000       0.43200000       0.43200000       0.43200000       0.43200000       0.43200000       0.43200000       0.43200000       0.43200000       0.43200000       0.43200000       0.43200000       0.43200000       0.43200000       0.43200000       0.43200000       0.43200000       0.43200000       0.43200000       0.43200000       0.43200000       0.43200000       0.43200000       0.43200000       0.43200000       0.43200000       0.43200000       0.43200000       0.43200000       0.43200000       0.43200000       0.43200000       0.43200000       0.43200000       0.43200000       0.43200000       0.43200000       0.43200000       0.43200000       0.43200000       0.43200000       0.43200000       0.43200000
    INTERNAL  FACTOR  1.0
           0.43200000       0.43200000       0.43200000       0.43200000       0.43200000       0.43200000       0.43200000       0.43200000       0.43200000       0.43200000       0.43200000       0.43200000       0.43200000       0.43200000       0.43200000       0.43200000       0.43200000       0.43200000       0.43200000       0.43200000       0.43200000       0.43200000       0.43200000       0.43200000       0.43200000       0.43200000       0.43200000       0.43200000       0.43200000       0.43200000       0.43200000       0.43200000       0.43200000       0.43200000       0.43200000       0.43200000       0.43200000       0.43200000       0.43200000       0.43200000       0.43200000       0.43200000       0.43200000       0.43200000       0.43200000       0.43200000       0.43200000       0.43200000       0.43200000       0.43200000
    INTERNAL  FACTOR  1.0
           0.43200000       0.43200000       0.43200000       0.43200000       0.43200000       0.43200000       0.43200000       0.43200000       0.43200000       0.43200000       0.43200000       0.43200000       0.43200000       0.43200000       0.43200000       0.43200000       0.43200000       0.43200000       0.43200000       0.43200000       0.43200000       0.43200000       0.43200000       0.43200000       0.43200000       0.43200000       0.43200000       0.43200000       0.43200000       0.43200000       0.43200000       0.43200000       0.43200000       0.43200000       0.43200000       0.43200000       0.43200000       0.43200000       0.43200000       0.43200000       0.43200000       0.43200000       0.43200000       0.43200000       0.43200000       0.43200000       0.43200000       0.43200000       0.43200000       0.43200000
    INTERNAL  FACTOR  1.0
           0.43200000       0.43200000       0.43200000       0.43200000       0.43200000       0.43200000       0.43200000       0.43200000       0.43200000       0.43200000       0.43200000       0.43200000       0.43200000       0.43200000       0.43200000       0.43200000       0.43200000       0.43200000       0.43200000       0.43200000       0.43200000       0.43200000       0.43200000       0.43200000       0.43200000       0.43200000       0.43200000       0.43200000       0.43200000       0.43200000       0.43200000       0.43200000       0.43200000       0.43200000       0.43200000       0.43200000       0.43200000       0.43200000       0.43200000       0.43200000       0.43200000       0.43200000       0.43200000       0.43200000       0.43200000       0.43200000       0.43200000       0.43200000       0.43200000       0.43200000
    INTERNAL  FACTOR  1.0
           0.43200000       0.43200000       0.43200000       0.43200000       0.43200000       0.43200000       0.43200000       0.43200000       0.43200000       0.43200000       0.43200000       0.43200000       0.43200000       0.43200000       0.43200000       0.43200000       0.43200000       0.43200000       0.43200000       0.43200000       0.43200000       0.43200000       0.43200000       0.43200000       0.43200000       0.43200000       0.43200000       0.43200000       0.43200000       0.43200000       0.43200000       0.43200000       0.43200000       0.43200000       0.43200000       0.43200000       0.43200000       0.43200000       0.43200000       0.43200000       0.43200000       0.43200000       0.43200000       0.43200000       0.43200000       0.43200000       0.43200000       0.43200000       0.43200000       0.43200000
    INTERNAL  FACTOR  1.0