# File generated by Flopy version 3.10.0.dev2 on 05/09/2025 at 15:28:31.
BEGIN options
  auxiliary  CONCENTRATION
END options

BEGIN dimensions
  MAXBOUND  22
END dimensions

BEGIN period  1
  6 1 50 5.37500000E+00 0.00000000E+00
  7 1 50 5.37500000E+00 0.00000000E+00
  8 1 50 5.37500000E+00 0.00000000E+00
  9 1 50 5.37500000E+00 0.00000000E+00
  10 1 50 5.37500000E+00 0.00000000E+00
  11 1 50 5.37500000E+00 0.00000000E+00
  12 1 50 5.37500000E+00 0.00000000E+00
  13 1 50 5.37500000E+00 0.00000000E+00
  14 1 50 5.37500000E+00 0.00000000E+00
  15 1 50 5.37500000E+00 0.00000000E+00
  16 1 50 5.37500000E+00 0.00000000E+00
  17 1 50 5.37500000E+00 0.00000000E+00
  18 1 50 5.37500000E+00 0.00000000E+00
  19 1 50 5.37500000E+00 0.00000000E+00
  20 1 50 5.37500000E+00 0.00000000E+00
  21 1 50 5.37500000E+00 0.00000000E+00
  22 1 50 5.37500000E+00 0.00000000E+00
  23 1 50 5.37500000E+00 0.00000000E+00
  24 1 50 5.37500000E+00 0.00000000E+00
  25 1 50 5.37500000E+00 0.00000000E+00
  26 1 50 5.37500000E+00 0.00000000E+00
  27 1 50 5.37500000E+00 0.00000000E+00
END period  1

