# File generated by Flopy version 3.10.0.dev2 on 05/09/2025 at 15:28:31.
BEGIN options
END options

BEGIN griddata
  alh
    CONSTANT       0.50000000
  ath1
    CONSTANT       0.00500000
  atv
    CONSTANT       0.00500000
END griddata

