# File generated by Flopy version 3.10.0.dev2 on 05/09/2025 at 15:28:31.
BEGIN options
  SCHEME  tvd
END options

