# File generated by Flopy version 3.10.0.dev2 on 05/09/2025 at 15:28:05.
BEGIN options
  SAVE_FLOWS
  DENSITY_WATER    1000.00000000
  HEAT_CAPACITY_WATER    4180.00000000
  LATENT_HEAT_VAPORIZATION    2500.00000000
END options

BEGIN griddata
  porosity
    CONSTANT       0.30000000
  heat_capacity_solid
    CONSTANT     800.00000000
  density_solid
    CONSTANT    1200.00000000
END griddata

