# File generated by Flopy version 3.10.0.dev2 on 05/09/2025 at 15:28:05.
BEGIN options
  XT3D_OFF
END options

BEGIN griddata
  ktw
    CONSTANT   50112.00000000
  kts
    CONSTANT   21600.00000000
END griddata

