# File generated by Flopy version 3.10.0.dev2 on 05/09/2025 at 15:28:05.
BEGIN options
  auxiliary  CONCENTRATION
END options

BEGIN dimensions
  MAXBOUND  31
END dimensions

BEGIN period  1
  1 1 1 4.50000000E+01 0.00000000E+00
  1 2 1 4.50000000E+01 0.00000000E+00
  1 3 1 4.50000000E+01 0.00000000E+00
  1 4 1 4.50000000E+01 0.00000000E+00
  1 5 1 4.50000000E+01 0.00000000E+00
  1 6 1 4.50000000E+01 0.00000000E+00
  1 7 1 4.50000000E+01 0.00000000E+00
  1 8 1 4.50000000E+01 0.00000000E+00
  1 9 1 4.50000000E+01 0.00000000E+00
  1 10 1 4.50000000E+01 0.00000000E+00
  1 11 1 4.50000000E+01 0.00000000E+00
  1 12 1 4.50000000E+01 0.00000000E+00
  1 13 1 4.50000000E+01 0.00000000E+00
  1 14 1 4.50000000E+01 0.00000000E+00
  1 15 1 4.50000000E+01 0.00000000E+00
  1 16 1 4.50000000E+01 0.00000000E+00
  1 17 1 4.50000000E+01 0.00000000E+00
  1 18 1 4.50000000E+01 0.00000000E+00
  1 19 1 4.50000000E+01 0.00000000E+00
  1 20 1 4.50000000E+01 0.00000000E+00
  1 21 1 4.50000000E+01 0.00000000E+00
  1 22 1 4.50000000E+01 0.00000000E+00
  1 23 1 4.50000000E+01 0.00000000E+00
  1 24 1 4.50000000E+01 0.00000000E+00
  1 25 1 4.50000000E+01 0.00000000E+00
  1 26 1 4.50000000E+01 0.00000000E+00
  1 27 1 4.50000000E+01 0.00000000E+00
  1 28 1 4.50000000E+01 0.00000000E+00
  1 29 1 4.50000000E+01 0.00000000E+00
  1 30 1 4.50000000E+01 0.00000000E+00
  1 31 1 4.50000000E+01 0.00000000E+00
END period  1

