# File generated by Flopy version 3.10.0.dev2 on 05/09/2025 at 15:28:05.
BEGIN options
  TEMPERATURE  FILEOUT  ex-gwe-vsc-02.ucn
  TEMPERATURE  PRINT_FORMAT  COLUMNS  3  WIDTH  20  DIGITS  8  GENERAL
END options

BEGIN period  1
  SAVE  TEMPERATURE  ALL
  PRINT  TEMPERATURE  ALL
  PRINT  BUDGET  ALL
END period  1

