# File generated by Flopy version 3.10.0.dev2 on 05/09/2025 at 15:28:05.
BEGIN options
  SAVE_FLOWS
END options

BEGIN packages
  DIS6  ex-gwt-vsc-02.dis  dis
  IC6  ex-gwt-vsc-02.ic  ic
  ADV6  ex-gwt-vsc-02.adv  adv
  DSP6  ex-gwt-vsc-02.dsp  dsp
  MST6  ex-gwt-vsc-02.mst  mst
  CNC6  ex-gwt-vsc-02.cnc  cnc-1
  SSM6  ex-gwt-vsc-02.ssm  ssm
  OC6  ex-gwt-vsc-02.oc  oc
END packages

