# File generated by Flopy version 3.10.0.dev2 on 05/09/2025 at 15:28:05.
BEGIN options
END options

BEGIN sources
  CHD-l  AUX  TEMPERATURE
  WEL-1  AUX  TEMPERATURE
END sources

