# File generated by Flopy version 3.10.0.dev2 on 05/09/2025 at 15:28:05.
BEGIN options
END options

BEGIN dimensions
  MAXBOUND  31
END dimensions

BEGIN period  1
  1 1 1       4.00000000
  1 2 1       7.00000000
  1 3 1      10.00000000
  1 4 1      13.00000000
  1 5 1      16.00000000
  1 6 1      19.00000000
  1 7 1      22.00000000
  1 8 1      25.00000000
  1 9 1      28.00000000
  1 10 1      31.00000000
  1 11 1      34.00000000
  1 12 1      37.00000000
  1 13 1      40.00000000
  1 14 1      43.00000000
  1 15 1      46.00000000
  1 16 1      49.00000000
  1 17 1      52.00000000
  1 18 1      55.00000000
  1 19 1      58.00000000
  1 20 1      61.00000000
  1 21 1      64.00000000
  1 22 1      67.00000000
  1 23 1      70.00000000
  1 24 1      73.00000000
  1 25 1      76.00000000
  1 26 1      79.00000000
  1 27 1      82.00000000
  1 28 1      85.00000000
  1 29 1      88.00000000
  1 30 1      91.00000000
  1 31 1      94.00000000
END period  1

