# File generated by Flopy version 3.10.0.dev2 on 05/09/2025 at 15:28:05.
BEGIN options
END options

BEGIN griddata
  strt
    INTERNAL  FACTOR  1.0
         4.00000000       4.00000000       4.00000000       4.00000000       4.00000000       4.00000000       4.00000000       4.00000000       4.00000000       4.00000000       4.00000000       4.00000000       4.00000000       4.00000000       4.00000000       4.00000000       4.00000000       4.00000000       4.00000000       4.00000000       4.00000000       4.00000000       4.00000000       4.00000000       4.00000000       4.00000000       4.00000000       4.00000000       4.00000000       4.00000000       4.00000000       4.00000000       4.00000000       4.00000000       4.00000000       4.00000000       4.00000000       4.00000000       4.00000000       4.00000000       4.00000000       4.00000000       4.00000000       4.00000000       4.00000000       4.00000000
         7.00000000       7.00000000       7.00000000       7.00000000       7.00000000       7.00000000       7.00000000       7.00000000       7.00000000       7.00000000       7.00000000       7.00000000       7.00000000       7.00000000       7.00000000       7.00000000       7.00000000       7.00000000       7.00000000       7.00000000       7.00000000       7.00000000       7.00000000       7.00000000       7.00000000       7.00000000       7.00000000       7.00000000       7.00000000       7.00000000       7.00000000       7.00000000       7.00000000       7.00000000       7.00000000       7.00000000       7.00000000       7.00000000       7.00000000       7.00000000       7.00000000       7.00000000       7.00000000       7.00000000       7.00000000       7.00000000
        10.00000000      10.00000000      10.00000000      10.00000000      10.00000000      10.00000000      10.00000000      10.00000000      10.00000000      10.00000000      10.00000000      10.00000000      10.00000000      10.00000000      10.00000000      10.00000000      10.00000000      10.00000000      10.00000000      10.00000000      10.00000000      10.00000000      10.00000000      10.00000000      10.00000000      10.00000000      10.00000000      10.00000000      10.00000000      10.00000000      10.00000000      10.00000000      10.00000000      10.00000000      10.00000000      10.00000000      10.00000000      10.00000000      10.00000000      10.00000000      10.00000000      10.00000000      10.00000000      10.00000000      10.00000000      10.00000000
        13.00000000      13.00000000      13.00000000      13.00000000      13.00000000      13.00000000      13.00000000      13.00000000      13.00000000      13.00000000      13.00000000      13.00000000      13.00000000      13.00000000      13.00000000      13.00000000      13.00000000      13.00000000      13.00000000      13.00000000      13.00000000      13.00000000      13.00000000      13.00000000      13.00000000      13.00000000      13.00000000      13.00000000      13.00000000      13.00000000      13.00000000      13.00000000      13.00000000      13.00000000      13.00000000      13.00000000      13.00000000      13.00000000      13.00000000      13.00000000      13.00000000      13.00000000      13.00000000      13.00000000      13.00000000      13.00000000
        16.00000000      16.00000000      16.00000000      16.00000000      16.00000000      16.00000000      16.00000000      16.00000000      16.00000000      16.00000000      16.00000000      16.00000000      16.00000000      16.00000000      16.00000000      16.00000000      16.00000000      16.00000000      16.00000000      16.00000000      16.00000000      16.00000000      16.00000000      16.00000000      16.00000000      16.00000000      16.00000000      16.00000000      16.00000000      16.00000000      16.00000000      16.00000000      16.00000000      16.00000000      16.00000000      16.00000000      16.00000000      16.00000000      16.00000000      16.00000000      16.00000000      16.00000000      16.00000000      16.00000000      16.00000000      16.00000000
        19.00000000      19.00000000      19.00000000      19.00000000      19.00000000      19.00000000      19.00000000      19.00000000      19.00000000      19.00000000      19.00000000      19.00000000      19.00000000      19.00000000      19.00000000      19.00000000      19.00000000      19.00000000      19.00000000      19.00000000      19.00000000      19.00000000      19.00000000      19.00000000      19.00000000      19.00000000      19.00000000      19.00000000      19.00000000      19.00000000      19.00000000      19.00000000      19.00000000      19.00000000      19.00000000      19.00000000      19.00000000      19.00000000      19.00000000      19.00000000      19.00000000      19.00000000      19.00000000      19.00000000      19.00000000      19.00000000
        22.00000000      22.00000000      22.00000000      22.00000000      22.00000000      22.00000000      22.00000000      22.00000000      22.00000000      22.00000000      22.00000000      22.00000000      22.00000000      22.00000000      22.00000000      22.00000000      22.00000000      22.00000000      22.00000000      22.00000000      22.00000000      22.00000000      22.00000000      22.00000000      22.00000000      22.00000000      22.00000000      22.00000000      22.00000000      22.00000000      22.00000000      22.00000000      22.00000000      22.00000000      22.00000000      22.00000000      22.00000000      22.00000000      22.00000000      22.00000000      22.00000000      22.00000000      22.00000000      22.00000000      22.00000000      22.00000000
        25.00000000      25.00000000      25.00000000      25.00000000      25.00000000      25.00000000      25.00000000      25.00000000      25.00000000      25.00000000      25.00000000      25.00000000      25.00000000      25.00000000      25.00000000      25.00000000      25.00000000      25.00000000      25.00000000      25.00000000      25.00000000      25.00000000      25.00000000      25.00000000      25.00000000      25.00000000      25.00000000      25.00000000      25.00000000      25.00000000      25.00000000      25.00000000      25.00000000      25.00000000      25.00000000      25.00000000      25.00000000      25.00000000      25.00000000      25.00000000      25.00000000      25.00000000      25.00000000      25.00000000      25.00000000      25.00000000
        28.00000000      28.00000000      28.00000000      28.00000000      28.00000000      28.00000000      28.00000000      28.00000000      28.00000000      28.00000000      28.00000000      28.00000000      28.00000000      28.00000000      28.00000000      28.00000000      28.00000000      28.00000000      28.00000000      28.00000000      28.00000000      28.00000000      28.00000000      28.00000000      28.00000000      28.00000000      28.00000000      28.00000000      28.00000000      28.00000000      28.00000000      28.00000000      28.00000000      28.00000000      28.00000000      28.00000000      28.00000000      28.00000000      28.00000000      28.00000000      28.00000000      28.00000000      28.00000000      28.00000000      28.00000000      28.00000000
        31.00000000      31.00000000      31.00000000      31.00000000      31.00000000      31.00000000      31.00000000      31.00000000      31.00000000      31.00000000      31.00000000      31.00000000      31.00000000      31.00000000      31.00000000      31.00000000      31.00000000      31.00000000      31.00000000      31.00000000      31.00000000      31.00000000      31.00000000      31.00000000      31.00000000      31.00000000      31.00000000      31.00000000      31.00000000      31.00000000      31.00000000      31.00000000      31.00000000      31.00000000      31.00000000      31.00000000      31.00000000      31.00000000      31.00000000      31.00000000      31.00000000      31.00000000      31.00000000      31.00000000      31.00000000      31.00000000
        34.00000000      34.00000000      34.00000000      34.00000000      34.00000000      34.00000000      34.00000000      34.00000000      34.00000000      34.00000000      34.00000000      34.00000000      34.00000000      34.00000000      34.00000000      34.00000000      34.00000000      34.00000000      34.00000000      34.00000000      34.00000000      34.00000000      34.00000000      34.00000000      34.00000000      34.00000000      34.00000000      34.00000000      34.00000000      34.00000000      34.00000000      34.00000000      34.00000000      34.00000000      34.00000000      34.00000000      34.00000000      34.00000000      34.00000000      34.00000000      34.00000000      34.00000000      34.00000000      34.00000000      34.00000000      34.00000000
        37.00000000      37.00000000      37.00000000      37.00000000      37.00000000      37.00000000      37.00000000      37.00000000      37.00000000      37.00000000      37.00000000      37.00000000      37.00000000      37.00000000      37.00000000      37.00000000      37.00000000      37.00000000      37.00000000      37.00000000      37.00000000      37.00000000      37.00000000      37.00000000      37.00000000      37.00000000      37.00000000      37.00000000      37.00000000      37.00000000      37.00000000      37.00000000      37.00000000      37.00000000      37.00000000      37.00000000      37.00000000      37.00000000      37.00000000      37.00000000      37.00000000      37.00000000      37.00000000      37.00000000      37.00000000      37.00000000
        40.00000000      40.00000000      40.00000000      40.00000000      40.00000000      40.00000000      40.00000000      40.00000000      40.00000000      40.00000000      40.00000000      40.00000000      40.00000000      40.00000000      40.00000000      40.00000000      40.00000000      40.00000000      40.00000000      40.00000000      40.00000000      40.00000000      40.00000000      40.00000000      40.00000000      40.00000000      40.00000000      40.00000000      40.00000000      40.00000000      40.00000000      40.00000000      40.00000000      40.00000000      40.00000000      40.00000000      40.00000000      40.00000000      40.00000000      40.00000000      40.00000000      40.00000000      40.00000000      40.00000000      40.00000000      40.00000000
        43.00000000      43.00000000      43.00000000      43.00000000      43.00000000      43.00000000      43.00000000      43.00000000      43.00000000      43.00000000      43.00000000      43.00000000      43.00000000      43.00000000      43.00000000      43.00000000      43.00000000      43.00000000      43.00000000      43.00000000      43.00000000      43.00000000      43.00000000      43.00000000      43.00000000      43.00000000      43.00000000      43.00000000      43.00000000      43.00000000      43.00000000      43.00000000      43.00000000      43.00000000      43.00000000      43.00000000      43.00000000      43.00000000      43.00000000      43.00000000      43.00000000      43.00000000      43.00000000      43.00000000      43.00000000      43.00000000
        46.00000000      46.00000000      46.00000000      46.00000000      46.00000000      46.00000000      46.00000000      46.00000000      46.00000000      46.00000000      46.00000000      46.00000000      46.00000000      46.00000000      46.00000000      46.00000000      46.00000000      46.00000000      46.00000000      46.00000000      46.00000000      46.00000000      46.00000000      46.00000000      46.00000000      46.00000000      46.00000000      46.00000000      46.00000000      46.00000000      46.00000000      46.00000000      46.00000000      46.00000000      46.00000000      46.00000000      46.00000000      46.00000000      46.00000000      46.00000000      46.00000000      46.00000000      46.00000000      46.00000000      46.00000000      46.00000000
        49.00000000      49.00000000      49.00000000      49.00000000      49.00000000      49.00000000      49.00000000      49.00000000      49.00000000      49.00000000      49.00000000      49.00000000      49.00000000      49.00000000      49.00000000      49.00000000      49.00000000      49.00000000      49.00000000      49.00000000      49.00000000      49.00000000      49.00000000      49.00000000      49.00000000      49.00000000      49.00000000      49.00000000      49.00000000      49.00000000      49.00000000      49.00000000      49.00000000      49.00000000      49.00000000      49.00000000      49.00000000      49.00000000      49.00000000      49.00000000      49.00000000      49.00000000      49.00000000      49.00000000      49.00000000      49.00000000
        52.00000000      52.00000000      52.00000000      52.00000000      52.00000000      52.00000000      52.00000000      52.00000000      52.00000000      52.00000000      52.00000000      52.00000000      52.00000000      52.00000000      52.00000000      52.00000000      52.00000000      52.00000000      52.00000000      52.00000000      52.00000000      52.00000000      52.00000000      52.00000000      52.00000000      52.00000000      52.00000000      52.00000000      52.00000000      52.00000000      52.00000000      52.00000000      52.00000000      52.00000000      52.00000000      52.00000000      52.00000000      52.00000000      52.00000000      52.00000000      52.00000000      52.00000000      52.00000000      52.00000000      52.00000000      52.00000000
        55.00000000      55.00000000      55.00000000      55.00000000      55.00000000      55.00000000      55.00000000      55.00000000      55.00000000      55.00000000      55.00000000      55.00000000      55.00000000      55.00000000      55.00000000      55.00000000      55.00000000      55.00000000      55.00000000      55.00000000      55.00000000      55.00000000      55.00000000      55.00000000      55.00000000      55.00000000      55.00000000      55.00000000      55.00000000      55.00000000      55.00000000      55.00000000      55.00000000      55.00000000      55.00000000      55.00000000      55.00000000      55.00000000      55.00000000      55.00000000      55.00000000      55.00000000      55.00000000      55.00000000      55.00000000      55.00000000
        58.00000000      58.00000000      58.00000000      58.00000000      58.00000000      58.00000000      58.00000000      58.00000000      58.00000000      58.00000000      58.00000000      58.00000000      58.00000000      58.00000000      58.00000000      58.00000000      58.00000000      58.00000000      58.00000000      58.00000000      58.00000000      58.00000000      58.00000000      58.00000000      58.00000000      58.00000000      58.00000000      58.00000000      58.00000000      58.00000000      58.00000000      58.00000000      58.00000000      58.00000000      58.00000000      58.00000000      58.00000000      58.00000000      58.00000000      58.00000000      58.00000000      58.00000000      58.00000000      58.00000000      58.00000000      58.00000000
        61.00000000      61.00000000      61.00000000      61.00000000      61.00000000      61.00000000      61.00000000      61.00000000      61.00000000      61.00000000      61.00000000      61.00000000      61.00000000      61.00000000      61.00000000      61.00000000      61.00000000      61.00000000      61.00000000      61.00000000      61.00000000      61.00000000      61.00000000      61.00000000      61.00000000      61.00000000      61.00000000      61.00000000      61.00000000      61.00000000      61.00000000      61.00000000      61.00000000      61.00000000      61.00000000      61.00000000      61.00000000      61.00000000      61.00000000      61.00000000      61.00000000      61.00000000      61.00000000      61.00000000      61.00000000      61.00000000
        64.00000000      64.00000000      64.00000000      64.00000000      64.00000000      64.00000000      64.00000000      64.00000000      64.00000000      64.00000000      64.00000000      64.00000000      64.00000000      64.00000000      64.00000000      64.00000000      64.00000000      64.00000000      64.00000000      64.00000000      64.00000000      64.00000000      64.00000000      64.00000000      64.00000000      64.00000000      64.00000000      64.00000000      64.00000000      64.00000000      64.00000000      64.00000000      64.00000000      64.00000000      64.00000000      64.00000000      64.00000000      64.00000000      64.00000000      64.00000000      64.00000000      64.00000000      64.00000000      64.00000000      64.00000000      64.00000000
        67.00000000      67.00000000      67.00000000      67.00000000      67.00000000      67.00000000      67.00000000      67.00000000      67.00000000      67.00000000      67.00000000      67.00000000      67.00000000      67.00000000      67.00000000      67.00000000      67.00000000      67.00000000      67.00000000      67.00000000      67.00000000      67.00000000      67.00000000      67.00000000      67.00000000      67.00000000      67.00000000      67.00000000      67.00000000      67.00000000      67.00000000      67.00000000      67.00000000      67.00000000      67.00000000      67.00000000      67.00000000      67.00000000      67.00000000      67.00000000      67.00000000      67.00000000      67.00000000      67.00000000      67.00000000      67.00000000
        70.00000000      70.00000000      70.00000000      70.00000000      70.00000000      70.00000000      70.00000000      70.00000000      70.00000000      70.00000000      70.00000000      70.00000000      70.00000000      70.00000000      70.00000000      70.00000000      70.00000000      70.00000000      70.00000000      70.00000000      70.00000000      70.00000000      70.00000000      70.00000000      70.00000000      70.00000000      70.00000000      70.00000000      70.00000000      70.00000000      70.00000000      70.00000000      70.00000000      70.00000000      70.00000000      70.00000000      70.00000000      70.00000000      70.00000000      70.00000000      70.00000000      70.00000000      70.00000000      70.00000000      70.00000000      70.00000000
        73.00000000      73.00000000      73.00000000      73.00000000      73.00000000      73.00000000      73.00000000      73.00000000      73.00000000      73.00000000      73.00000000      73.00000000      73.00000000      73.00000000      73.00000000      73.00000000      73.00000000      73.00000000      73.00000000      73.00000000      73.00000000      73.00000000      73.00000000      73.00000000      73.00000000      73.00000000      73.00000000      73.00000000      73.00000000      73.00000000      73.00000000      73.00000000      73.00000000      73.00000000      73.00000000      73.00000000      73.00000000      73.00000000      73.00000000      73.00000000      73.00000000      73.00000000      73.00000000      73.00000000      73.00000000      73.00000000
        76.00000000      76.00000000      76.00000000      76.00000000      76.00000000      76.00000000      76.00000000      76.00000000      76.00000000      76.00000000      76.00000000      76.00000000      76.00000000      76.00000000      76.00000000      76.00000000      76.00000000      76.00000000      76.00000000      76.00000000      76.00000000      76.00000000      76.00000000      76.00000000      76.00000000      76.00000000      76.00000000      76.00000000      76.00000000      76.00000000      76.00000000      76.00000000      76.00000000      76.00000000      76.00000000      76.00000000      76.00000000      76.00000000      76.00000000      76.00000000      76.00000000      76.00000000      76.00000000      76.00000000      76.00000000      76.00000000
        79.00000000      79.00000000      79.00000000      79.00000000      79.00000000      79.00000000      79.00000000      79.00000000      79.00000000      79.00000000      79.00000000      79.00000000      79.00000000      79.00000000      79.00000000      79.00000000      79.00000000      79.00000000      79.00000000      79.00000000      79.00000000      79.00000000      79.00000000      79.00000000      79.00000000      79.00000000      79.00000000      79.00000000      79.00000000      79.00000000      79.00000000      79.00000000      79.00000000      79.00000000      79.00000000      79.00000000      79.00000000      79.00000000      79.00000000      79.00000000      79.00000000      79.00000000      79.00000000      79.00000000      79.00000000      79.00000000
        82.00000000      82.00000000      82.00000000      82.00000000      82.00000000      82.00000000      82.00000000      82.00000000      82.00000000      82.00000000      82.00000000      82.00000000      82.00000000      82.00000000      82.00000000      82.00000000      82.00000000      82.00000000      82.00000000      82.00000000      82.00000000      82.00000000      82.00000000      82.00000000      82.00000000      82.00000000      82.00000000      82.00000000      82.00000000      82.00000000      82.00000000      82.00000000      82.00000000      82.00000000      82.00000000      82.00000000      82.00000000      82.00000000      82.00000000      82.00000000      82.00000000      82.00000000      82.00000000      82.00000000      82.00000000      82.00000000
        85.00000000      85.00000000      85.00000000      85.00000000      85.00000000      85.00000000      85.00000000      85.00000000      85.00000000      85.00000000      85.00000000      85.00000000      85.00000000      85.00000000      85.00000000      85.00000000      85.00000000      85.00000000      85.00000000      85.00000000      85.00000000      85.00000000      85.00000000      85.00000000      85.00000000      85.00000000      85.00000000      85.00000000      85.00000000      85.00000000      85.00000000      85.00000000      85.00000000      85.00000000      85.00000000      85.00000000      85.00000000      85.00000000      85.00000000      85.00000000      85.00000000      85.00000000      85.00000000      85.00000000      85.00000000      85.00000000
        88.00000000      88.00000000      88.00000000      88.00000000      88.00000000      88.00000000      88.00000000      88.00000000      88.00000000      88.00000000      88.00000000      88.00000000      88.00000000      88.00000000      88.00000000      88.00000000      88.00000000      88.00000000      88.00000000      88.00000000      88.00000000      88.00000000      88.00000000      88.00000000      88.00000000      88.00000000      88.00000000      88.00000000      88.00000000      88.00000000      88.00000000      88.00000000      88.00000000      88.00000000      88.00000000      88.00000000      88.00000000      88.00000000      88.00000000      88.00000000      88.00000000      88.00000000      88.00000000      88.00000000      88.00000000      88.00000000
        91.00000000      91.00000000      91.00000000      91.00000000      91.00000000      91.00000000      91.00000000      91.00000000      91.00000000      91.00000000      91.00000000      91.00000000      91.00000000      91.00000000      91.00000000      91.00000000      91.00000000      91.00000000      91.00000000      91.00000000      91.00000000      91.00000000      91.00000000      91.00000000      91.00000000      91.00000000      91.00000000      91.00000000      91.00000000      91.00000000      91.00000000      91.00000000      91.00000000      91.00000000      91.00000000      91.00000000      91.00000000      91.00000000      91.00000000      91.00000000      91.00000000      91.00000000      91.00000000      91.00000000      91.00000000      91.00000000
        94.00000000      94.00000000      94.00000000      94.00000000      94.00000000      94.00000000      94.00000000      94.00000000      94.00000000      94.00000000      94.00000000      94.00000000      94.00000000      94.00000000      94.00000000      94.00000000      94.00000000      94.00000000      94.00000000      94.00000000      94.00000000      94.00000000      94.00000000      94.00000000      94.00000000      94.00000000      94.00000000      94.00000000      94.00000000      94.00000000      94.00000000      94.00000000      94.00000000      94.00000000      94.00000000      94.00000000      94.00000000      94.00000000      94.00000000      94.00000000      94.00000000      94.00000000      94.00000000      94.00000000      94.00000000      94.00000000
END griddata

