# WEL package for MODFLOW-2005 generated by Flopy 3.10.0.dev2
         1         0 
         1         0 # stress period 1
         7         8         3             0.5
