# File generated by Flopy version 3.10.0.dev2 on 05/09/2025 at 15:28:02.
BEGIN options
  TIME_UNITS  days
END options

BEGIN dimensions
  NPER  52
END dimensions

BEGIN perioddata
       0.02083333  10       1.00000000
       0.02083333  10       1.00000000
       0.02083333  10       1.00000000
       0.02083333  10       1.00000000
       0.02083333  10       1.00000000
       0.02083333  10       1.00000000
       0.02083333  10       1.00000000
       0.02083333  10       1.00000000
       0.02083333  1       1.00000000
       0.02083333  1       1.00000000
       0.02083333  1       1.00000000
       0.02083333  1       1.00000000
       0.02083333  1       1.00000000
       0.02083333  1       1.00000000
       0.02083333  1       1.00000000
       0.02083333  1       1.00000000
       0.02083333  1       1.00000000
       0.02083333  1       1.00000000
       0.02083333  1       1.00000000
       0.02083333  1       1.00000000
       0.02083333  1       1.00000000
       0.02083333  1       1.00000000
       0.02083333  1       1.00000000
       0.02083333  1       1.00000000
       0.02083333  1       1.00000000
       0.02083333  1       1.00000000
       0.02083333  1       1.00000000
       0.02083333  1       1.00000000
       0.02083333  1       1.00000000
       0.02083333  1       1.00000000
       0.02083333  1       1.00000000
       0.02083333  1       1.00000000
       0.02083333  1       1.00000000
       0.02083333  1       1.00000000
       0.02083333  1       1.00000000
       0.02083333  1       1.00000000
       0.02083333  1       1.00000000
       0.02083333  1       1.00000000
       0.02083333  1       1.00000000
       0.02083333  1       1.00000000
       0.02083333  1       1.00000000
       0.02083333  1       1.00000000
       0.02083333  1       1.00000000
       0.02083333  1       1.00000000
       0.02083333  1       1.00000000
       0.02083333  1       1.00000000
       0.02083333  1       1.00000000
       0.02083333  1       1.00000000
       0.25000000  1       1.00000000
       0.25000000  1       1.00000000
       0.25000000  1       1.00000000
       0.25000000  1       1.00000000
END perioddata

