# File generated by Flopy version 3.10.0.dev2 on 05/09/2025 at 15:28:03.
BEGIN options
END options

BEGIN dimensions
  MAXBOUND  1
END dimensions

BEGIN period  1
  1 1  8.64000000E+06
END period  1

