# File generated by Flopy version 3.10.0.dev2 on 05/09/2025 at 15:28:02.
BEGIN options
END options

BEGIN timing
  TDIS6  ex-gwe-radial-slow-b.tdis
END timing

BEGIN models
  gwe6  gwe-radial.nam  gwe-radial
END models

BEGIN exchanges
END exchanges

BEGIN solutiongroup  1
  ims6  gwe-radial.ims  gwe-radial
END solutiongroup  1

