# File generated by Flopy version 3.10.0.dev2 on 05/09/2025 at 15:28:47.
BEGIN options
END options

BEGIN griddata
  iconvert
    CONSTANT  0
  ss
    CONSTANT  3.80000000E-10
  sy
    CONSTANT       0.15000000
END griddata

