# File generated by Flopy version 3.10.0.dev2 on 05/09/2025 at 15:28:47.
BEGIN options
  auxiliary  CONCENTRATION
END options

BEGIN dimensions
  MAXBOUND  34
END dimensions

BEGIN period  1
  1 1 102 7.50000000E+01 8.40000000E-05
  1 1 103 7.50000000E+01 8.40000000E-05
  1 1 104 7.50000000E+01 8.40000000E-05
  1 1 105 7.50000000E+01 8.40000000E-05
  1 1 106 7.50000000E+01 8.40000000E-05
  1 1 107 7.50000000E+01 8.40000000E-05
  1 1 108 7.50000000E+01 8.40000000E-05
  1 1 109 7.50000000E+01 8.40000000E-05
  1 1 110 7.50000000E+01 8.40000000E-05
  1 1 111 7.50000000E+01 8.40000000E-05
  1 1 112 7.50000000E+01 8.40000000E-05
  1 1 113 7.50000000E+01 8.40000000E-05
  1 1 114 7.50000000E+01 8.40000000E-05
  1 1 115 7.50000000E+01 8.40000000E-05
  1 1 116 7.50000000E+01 8.40000000E-05
  1 1 117 7.50000000E+01 8.40000000E-05
  1 1 118 7.50000000E+01 8.40000000E-05
  1 1 119 7.50000000E+01 8.40000000E-05
  1 1 120 7.50000000E+01 8.40000000E-05
  1 1 121 7.50000000E+01 8.40000000E-05
  1 1 122 7.50000000E+01 8.40000000E-05
  1 1 123 7.50000000E+01 8.40000000E-05
  1 1 124 7.50000000E+01 8.40000000E-05
  1 1 125 7.50000000E+01 8.40000000E-05
  1 1 126 7.50000000E+01 8.40000000E-05
  1 1 127 7.50000000E+01 8.40000000E-05
  1 1 128 7.50000000E+01 8.40000000E-05
  1 1 129 7.50000000E+01 8.40000000E-05
  1 1 130 7.50000000E+01 8.40000000E-05
  1 1 131 7.50000000E+01 8.40000000E-05
  1 1 132 7.50000000E+01 8.40000000E-05
  1 1 133 7.50000000E+01 8.40000000E-05
  1 1 134 7.50000000E+01 8.40000000E-05
  1 1 135 7.50000000E+01 8.40000000E-05
END period  1

