# File generated by Flopy version 3.10.0.dev2 on 05/09/2025 at 15:28:47.
BEGIN options
END options

BEGIN dimensions
  MAXBOUND  67
END dimensions

BEGIN period  1
  1 1 1 -1.03000000E-03
  1 1 2 -1.03000000E-03
  1 1 3 -1.03000000E-03
  1 1 4 -1.03000000E-03
  1 1 5 -1.03000000E-03
  1 1 6 -1.03000000E-03
  1 1 7 -1.03000000E-03
  1 1 8 -1.03000000E-03
  1 1 9 -1.03000000E-03
  1 1 10 -1.03000000E-03
  1 1 11 -1.03000000E-03
  1 1 12 -1.03000000E-03
  1 1 13 -1.03000000E-03
  1 1 14 -1.03000000E-03
  1 1 15 -1.03000000E-03
  1 1 16 -1.03000000E-03
  1 1 17 -1.03000000E-03
  1 1 18 -1.03000000E-03
  1 1 19 -1.03000000E-03
  1 1 20 -1.03000000E-03
  1 1 21 -1.03000000E-03
  1 1 22 -1.03000000E-03
  1 1 23 -1.03000000E-03
  1 1 24 -1.03000000E-03
  1 1 25 -1.03000000E-03
  1 1 26 -1.03000000E-03
  1 1 27 -1.03000000E-03
  1 1 28 -1.03000000E-03
  1 1 29 -1.03000000E-03
  1 1 30 -1.03000000E-03
  1 1 31 -1.03000000E-03
  1 1 32 -1.03000000E-03
  1 1 33 -1.03000000E-03
  1 1 34 -1.03000000E-03
  1 1 35 -1.03000000E-03
  1 1 36 -1.03000000E-03
  1 1 37 -1.03000000E-03
  1 1 38 -1.03000000E-03
  1 1 39 -1.03000000E-03
  1 1 40 -1.03000000E-03
  1 1 41 -1.03000000E-03
  1 1 42 -1.03000000E-03
  1 1 43 -1.03000000E-03
  1 1 44 -1.03000000E-03
  1 1 45 -1.03000000E-03
  1 1 46 -1.03000000E-03
  1 1 47 -1.03000000E-03
  1 1 48 -1.03000000E-03
  1 1 49 -1.03000000E-03
  1 1 50 -1.03000000E-03
  1 1 51 -1.03000000E-03
  1 1 52 -1.03000000E-03
  1 1 53 -1.03000000E-03
  1 1 54 -1.03000000E-03
  1 1 55 -1.03000000E-03
  1 1 56 -1.03000000E-03
  1 1 57 -1.03000000E-03
  1 1 58 -1.03000000E-03
  1 1 59 -1.03000000E-03
  1 1 60 -1.03000000E-03
  1 1 61 -1.03000000E-03
  1 1 62 -1.03000000E-03
  1 1 63 -1.03000000E-03
  1 1 64 -1.03000000E-03
  1 1 65 -1.03000000E-03
  1 1 66 -1.03000000E-03
  1 1 67 -1.03000000E-03
END period  1

