# File generated by Flopy version 3.10.0.dev2 on 05/09/2025 at 15:28:47.
BEGIN options
  DENSEREF       0.00106500
END options

BEGIN dimensions
  NRHOSPECIES  1
END dimensions

BEGIN packagedata
  1       0.64600000       0.00000000  trans  concentration
END packagedata

