# File generated by Flopy version 3.10.0.dev2 on 05/09/2025 at 15:28:47.
BEGIN options
  XT3D_OFF
END options

BEGIN griddata
  diffc
    CONSTANT  9.00000000E-04
  alh
    CONSTANT  9.00000000E-07
  ath1
    CONSTANT  9.00000000E-07
END griddata

