# File generated by Flopy version 3.10.0.dev2 on 05/09/2025 at 15:28:47.
BEGIN options
END options

BEGIN dimensions
  MAXBOUND  67
END dimensions

BEGIN period  1
  1 1 1  1.10005820E-04
  1 1 2  1.09926330E-04
  1 1 3  1.10010052E-04
  1 1 4  1.09933171E-04
  1 1 5  1.10048759E-04
  1 1 6  1.10087145E-04
  1 1 7  1.09902031E-04
  1 1 8  1.09943002E-04
  1 1 9  1.10056396E-04
  1 1 10  1.10050264E-04
  1 1 11  1.10065087E-04
  1 1 12  1.09926627E-04
  1 1 13  1.09870734E-04
  1 1 14  1.10054812E-04
  1 1 15  1.09933170E-04
  1 1 16  1.09891437E-04
  1 1 17  1.10112436E-04
  1 1 18  1.09931580E-04
  1 1 19  1.09956690E-04
  1 1 20  1.10079141E-04
  1 1 21  1.09954137E-04
  1 1 22  1.09930199E-04
  1 1 23  1.10000471E-04
  1 1 24  1.10077175E-04
  1 1 25  1.09921382E-04
  1 1 26  1.09936380E-04
  1 1 27  1.10084392E-04
  1 1 28  1.09938118E-04
  1 1 29  1.10030702E-04
  1 1 30  1.09996709E-04
  1 1 31  1.09894743E-04
  1 1 32  1.09919410E-04
  1 1 33  1.09965808E-04
  1 1 34  1.09882760E-04
  1 1 35  1.09947931E-04
  1 1 36  1.09943564E-04
  1 1 37  1.10042927E-04
  1 1 38  1.10073036E-04
  1 1 39  1.10032913E-04
  1 1 40  1.10030154E-04
  1 1 41  1.10055236E-04
  1 1 42  1.09985486E-04
  1 1 43  1.09911995E-04
  1 1 44  1.09895519E-04
  1 1 45  1.09981401E-04
  1 1 46  1.10090482E-04
  1 1 47  1.09929019E-04
  1 1 48  1.10020532E-04
  1 1 49  1.09928315E-04
  1 1 50  1.09923195E-04
  1 1 51  1.09954158E-04
  1 1 52  1.10017786E-04
  1 1 53  1.10099851E-04
  1 1 54  1.10010087E-04
  1 1 55  1.09929232E-04
  1 1 56  1.10103061E-04
  1 1 57  1.09913243E-04
  1 1 58  1.09905848E-04
  1 1 59  1.10072908E-04
  1 1 60  1.09913113E-04
  1 1 61  1.10012412E-04
  1 1 62  1.10057299E-04
  1 1 63  1.09915666E-04
  1 1 64  1.09950944E-04
  1 1 65  1.10100896E-04
  1 1 66  1.09979349E-04
  1 1 67  1.09984270E-04
END period  1

