# File generated by Flopy version 3.10.0.dev2 on 05/09/2025 at 15:28:00.
BEGIN options
  SAVE_FLOWS
END options

BEGIN packages
  DIS6  child.dis  dis
  NPF6  child.npf  npf
  IC6  child.ic  ic
  RIV6  child.riv  riv
  RCH6  child.rcha  rch
  OC6  child.oc  oc
END packages

