# File generated by Flopy version 3.10.0.dev2 on 05/09/2025 at 15:28:01.
BEGIN options
  BUDGET  FILEOUT  child.cbc
  HEAD  FILEOUT  child.hds
END options

BEGIN period  1
  SAVE  HEAD  ALL
  SAVE  BUDGET  ALL
END period  1

