# File generated by Flopy version 3.10.0.dev2 on 05/09/2025 at 15:28:01.
BEGIN options
END options

BEGIN dimensions
  MAXBOUND  123
END dimensions

BEGIN period  1
  1 35 77 3.99520000E+01 1.83700000E-02 3.94520000E+01
  1 35 78 3.98660000E+01 1.83700000E-02 3.93660000E+01
  1 36 76 4.00600000E+01 1.83700000E-02 3.95600000E+01
  1 36 77 4.00100000E+01 1.83700000E-02 3.95100000E+01
  1 37 74 4.02670000E+01 1.83700000E-02 3.97670000E+01
  1 37 75 4.02160000E+01 1.83700000E-02 3.97160000E+01
  1 37 76 4.01080000E+01 1.83700000E-02 3.96080000E+01
  1 38 72 4.04940000E+01 1.83700000E-02 3.99940000E+01
  1 38 73 4.04090000E+01 1.83700000E-02 3.99090000E+01
  1 38 74 4.03150000E+01 1.83700000E-02 3.98150000E+01
  1 39 69 4.07640000E+01 1.83700000E-02 4.02640000E+01
  1 39 70 4.06980000E+01 1.83700000E-02 4.01980000E+01
  1 39 71 4.06020000E+01 1.83700000E-02 4.01020000E+01
  1 39 72 4.05420000E+01 1.83700000E-02 4.00420000E+01
  1 40 67 4.09730000E+01 1.83700000E-02 4.04730000E+01
  1 40 68 4.08930000E+01 1.83700000E-02 4.03930000E+01
  1 40 69 4.08150000E+01 1.83700000E-02 4.03150000E+01
  1 41 65 4.11800000E+01 1.83700000E-02 4.06800000E+01
  1 41 66 4.10880000E+01 1.83700000E-02 4.05880000E+01
  1 41 67 4.10220000E+01 1.83700000E-02 4.05220000E+01
  1 42 63 4.13850000E+01 1.83700000E-02 4.08850000E+01
  1 42 64 4.12840000E+01 1.83700000E-02 4.07840000E+01
  1 42 65 4.12290000E+01 1.83700000E-02 4.07290000E+01
  1 43 61 4.15630000E+01 1.83700000E-02 4.10630000E+01
  1 43 62 4.14830000E+01 1.83700000E-02 4.09830000E+01
  1 43 63 4.14300000E+01 1.83700000E-02 4.09300000E+01
  1 44 59 4.17470000E+01 1.83700000E-02 4.12470000E+01
  1 44 60 4.16870000E+01 1.83700000E-02 4.11870000E+01
  1 44 61 4.16140000E+01 1.83700000E-02 4.11140000E+01
  1 45 54 4.22430000E+01 1.83700000E-02 4.17430000E+01
  1 45 55 4.21670000E+01 1.83700000E-02 4.16670000E+01
  1 45 56 4.20730000E+01 1.83700000E-02 4.15730000E+01
  1 45 57 4.19800000E+01 1.83700000E-02 4.14800000E+01
  1 45 58 4.18710000E+01 1.83700000E-02 4.13710000E+01
  1 45 59 4.17980000E+01 1.83700000E-02 4.12980000E+01
  1 46 26 4.50440000E+01 1.83700000E-02 4.45440000E+01
  1 46 27 4.49800000E+01 1.83700000E-02 4.44800000E+01
  1 46 28 4.48770000E+01 1.83700000E-02 4.43770000E+01
  1 46 29 4.47930000E+01 1.83700000E-02 4.42930000E+01
  1 46 47 4.29050000E+01 1.83700000E-02 4.24050000E+01
  1 46 48 4.28200000E+01 1.83700000E-02 4.23200000E+01
  1 46 49 4.27270000E+01 1.83700000E-02 4.22270000E+01
  1 46 50 4.26340000E+01 1.83700000E-02 4.21340000E+01
  1 46 51 4.25400000E+01 1.83700000E-02 4.20400000E+01
  1 46 52 4.24470000E+01 1.83700000E-02 4.19470000E+01
  1 46 53 4.23530000E+01 1.83700000E-02 4.18530000E+01
  1 46 54 4.22900000E+01 1.83700000E-02 4.17900000E+01
  1 47 25 4.51580000E+01 1.83700000E-02 4.46580000E+01
  1 47 26 4.51130000E+01 1.83700000E-02 4.46130000E+01
  1 47 29 4.47390000E+01 1.83700000E-02 4.42390000E+01
  1 47 30 4.46900000E+01 1.83700000E-02 4.41900000E+01
  1 47 32 4.43820000E+01 1.83700000E-02 4.38820000E+01
  1 47 33 4.43270000E+01 1.83700000E-02 4.38270000E+01
  1 47 34 4.42480000E+01 1.83700000E-02 4.37480000E+01
  1 47 46 4.30120000E+01 1.83700000E-02 4.25120000E+01
  1 47 47 4.29700000E+01 1.83700000E-02 4.24700000E+01
  1 48 24 4.52710000E+01 1.83700000E-02 4.47710000E+01
  1 48 25 4.52160000E+01 1.83700000E-02 4.47160000E+01
  1 48 30 4.46260000E+01 1.83700000E-02 4.41260000E+01
  1 48 31 4.45260000E+01 1.83700000E-02 4.40260000E+01
  1 48 32 4.44370000E+01 1.83700000E-02 4.39370000E+01
  1 48 34 4.42000000E+01 1.83700000E-02 4.37000000E+01
  1 48 35 4.41250000E+01 1.83700000E-02 4.36250000E+01
  1 48 36 4.40550000E+01 1.83700000E-02 4.35550000E+01
  1 48 45 4.31260000E+01 1.83700000E-02 4.26260000E+01
  1 48 46 4.30690000E+01 1.83700000E-02 4.25690000E+01
  1 49 23 4.53850000E+01 1.83700000E-02 4.48850000E+01
  1 49 24 4.53290000E+01 1.83700000E-02 4.48290000E+01
  1 49 36 4.40030000E+01 1.83700000E-02 4.35030000E+01
  1 49 37 4.39400000E+01 1.83700000E-02 4.34400000E+01
  1 49 38 4.38330000E+01 1.83700000E-02 4.33330000E+01
  1 49 39 4.37480000E+01 1.83700000E-02 4.32480000E+01
  1 49 40 4.36460000E+01 1.83700000E-02 4.31460000E+01
  1 49 41 4.35530000E+01 1.83700000E-02 4.30530000E+01
  1 49 42 4.34600000E+01 1.83700000E-02 4.29600000E+01
  1 49 43 4.33660000E+01 1.83700000E-02 4.28660000E+01
  1 49 44 4.32590000E+01 1.83700000E-02 4.27590000E+01
  1 49 45 4.31830000E+01 1.83700000E-02 4.26830000E+01
  1 50 22 4.54980000E+01 1.83700000E-02 4.49980000E+01
  1 50 23 4.54340000E+01 1.83700000E-02 4.49340000E+01
  1 51 21 4.56100000E+01 1.83700000E-02 4.51100000E+01
  1 51 22 4.55680000E+01 1.83700000E-02 4.50680000E+01
  1 52 21 4.56590000E+01 1.83700000E-02 4.51590000E+01
  1 53 20 4.57740000E+01 1.83700000E-02 4.52740000E+01
  1 53 21 4.57250000E+01 1.83700000E-02 4.52250000E+01
  1 54 19 4.58890000E+01 1.83700000E-02 4.53890000E+01
  1 54 20 4.58310000E+01 1.83700000E-02 4.53310000E+01
  1 55 18 4.60040000E+01 1.83700000E-02 4.55040000E+01
  1 55 19 4.59460000E+01 1.83700000E-02 4.54460000E+01
  1 56 17 4.61190000E+01 1.83700000E-02 4.56190000E+01
  1 56 18 4.60610000E+01 1.83700000E-02 4.55610000E+01
  1 57 16 4.62340000E+01 1.83700000E-02 4.57340000E+01
  1 57 17 4.61760000E+01 1.83700000E-02 4.56760000E+01
  1 58 15 4.63490000E+01 1.83700000E-02 4.58490000E+01
  1 58 16 4.62910000E+01 1.83700000E-02 4.57910000E+01
  1 59 14 4.64640000E+01 1.83700000E-02 4.59640000E+01
  1 59 15 4.64060000E+01 1.83700000E-02 4.59060000E+01
  1 60 13 4.65790000E+01 1.83700000E-02 4.60790000E+01
  1 60 14 4.65210000E+01 1.83700000E-02 4.60210000E+01
  1 61 12 4.66940000E+01 1.83700000E-02 4.61940000E+01
  1 61 13 4.66360000E+01 1.83700000E-02 4.61360000E+01
  1 62 11 4.68090000E+01 1.83700000E-02 4.63090000E+01
  1 62 12 4.67510000E+01 1.83700000E-02 4.62510000E+01
  1 63 10 4.69240000E+01 1.83700000E-02 4.64240000E+01
  1 63 11 4.68650000E+01 1.83700000E-02 4.63650000E+01
  1 64 9 4.70390000E+01 1.83700000E-02 4.65390000E+01
  1 64 10 4.69800000E+01 1.83700000E-02 4.64800000E+01
  1 65 8 4.71540000E+01 1.83700000E-02 4.66540000E+01
  1 65 9 4.70950000E+01 1.83700000E-02 4.65950000E+01
  1 66 7 4.72690000E+01 1.83700000E-02 4.67690000E+01
  1 66 8 4.72100000E+01 1.83700000E-02 4.67100000E+01
  1 67 6 4.73840000E+01 1.83700000E-02 4.68840000E+01
  1 67 7 4.73250000E+01 1.83700000E-02 4.68250000E+01
  1 68 5 4.75050000E+01 1.83700000E-02 4.70050000E+01
  1 68 6 4.74400000E+01 1.83700000E-02 4.69400000E+01
  1 69 3 4.76790000E+01 1.83700000E-02 4.71790000E+01
  1 69 4 4.76200000E+01 1.83700000E-02 4.71200000E+01
  1 69 5 4.75560000E+01 1.83700000E-02 4.70560000E+01
  1 70 2 4.78010000E+01 1.83700000E-02 4.73010000E+01
  1 70 3 4.77320000E+01 1.83700000E-02 4.72320000E+01
  1 71 1 4.79240000E+01 1.83700000E-02 4.74240000E+01
  1 71 2 4.78540000E+01 1.83700000E-02 4.73540000E+01
  1 72 1 4.79770000E+01 1.83700000E-02 4.74770000E+01
END period  1

