# File generated by Flopy version 3.10.0.dev2 on 05/09/2025 at 15:28:00.
BEGIN options
END options

BEGIN dimensions
  MAXBOUND  33
END dimensions

BEGIN period  1
  1 29 47 3.81665000E+01 3.67400000E-02 3.76665000E+01
  1 29 48 3.79424000E+01 9.18500000E-02 3.74424000E+01
  1 29 49 3.76653333E+01 5.51100000E-02 3.71653333E+01
  1 30 43 3.93943333E+01 5.51100000E-02 3.88943333E+01
  1 30 44 3.91120000E+01 5.51100000E-02 3.86120000E+01
  1 30 45 3.88264000E+01 9.18500000E-02 3.83264000E+01
  1 30 46 3.85160000E+01 5.51100000E-02 3.80160000E+01
  1 30 47 3.82885000E+01 3.67400000E-02 3.77885000E+01
  1 30 49 3.75520000E+01 1.83700000E-02 3.70520000E+01
  1 31 42 3.97057500E+01 7.34800000E-02 3.92057500E+01
  1 31 43 3.95270000E+01 1.83700000E-02 3.90270000E+01
  1 43 15 4.80720000E+01 3.67400000E-02 4.75720000E+01
  1 44 14 4.84327500E+01 7.34800000E-02 4.79327500E+01
  1 44 15 4.82166667E+01 5.51100000E-02 4.77166667E+01
  1 45 2 5.19770000E+01 1.83700000E-02 5.14770000E+01
  1 45 3 5.19700000E+01 1.83700000E-02 5.14700000E+01
  1 45 12 4.89580000E+01 1.83700000E-02 4.84580000E+01
  1 45 13 4.87618000E+01 9.18500000E-02 4.82618000E+01
  1 45 14 4.85740000E+01 1.83700000E-02 4.80740000E+01
  1 46 3 5.17982000E+01 9.18500000E-02 5.12982000E+01
  1 46 4 5.16260000E+01 1.83700000E-02 5.11260000E+01
  1 46 10 4.95500000E+01 1.83700000E-02 4.90500000E+01
  1 46 11 4.93872500E+01 7.34800000E-02 4.88872500E+01
  1 46 12 4.91170000E+01 7.34800000E-02 4.86170000E+01
  1 47 4 5.14542000E+01 9.18500000E-02 5.09542000E+01
  1 47 5 5.12820000E+01 1.83700000E-02 5.07820000E+01
  1 47 9 4.99542500E+01 7.34800000E-02 4.94542500E+01
  1 47 10 4.97005000E+01 7.34800000E-02 4.92005000E+01
  1 48 5 5.11390000E+01 7.34800000E-02 5.06390000E+01
  1 48 6 5.08797500E+01 7.34800000E-02 5.03797500E+01
  1 48 7 5.05690000E+01 5.51100000E-02 5.00690000E+01
  1 48 8 5.02876667E+01 5.51100000E-02 4.97876667E+01
  1 48 9 5.00970000E+01 1.83700000E-02 4.95970000E+01
END period  1

