# File generated by Flopy version 3.10.0.dev2 on 05/09/2025 at 15:28:00.
BEGIN options
  SAVE_FLOWS
END options

BEGIN packages
  DIS6  parent.dis  dis
  NPF6  parent.npf  npf
  IC6  parent.ic  ic
  RIV6  parent.riv  riv
  RCH6  parent.rcha  rch
  OC6  parent.oc  oc
END packages

