# File generated by Flopy version 3.10.0.dev2 on 05/09/2025 at 15:27:47.
BEGIN options
  auxiliary  draindepth
  AUXDEPTHNAME  draindepth
  BOUNDNAMES
  OBS6  FILEIN  ex-gwf-drn-p01.surfrate.obs
  MOVER
END options

BEGIN dimensions
  MAXBOUND  116
END dimensions

BEGIN period  1
  1 1 1 1.09254800E+03 2.50000000E+01 1.00000000E+00 surfrate
  1 1 2 1.10450000E+03 2.50000000E+01 1.00000000E+00 surfrate
  1 2 1 1.10450000E+03 2.50000000E+01 1.00000000E+00 surfrate
  1 2 2 1.08755900E+03 2.50000000E+01 1.00000000E+00 surfrate
  1 2 3 1.10450000E+03 2.50000000E+01 1.00000000E+00 surfrate
  1 2 6 1.09950000E+03 2.50000000E+01 1.00000000E+00 surfrate
  1 2 7 1.09950000E+03 2.50000000E+01 1.00000000E+00 surfrate
  1 2 8 1.10950000E+03 2.50000000E+01 1.00000000E+00 surfrate
  1 3 2 1.09950000E+03 2.50000000E+01 1.00000000E+00 surfrate
  1 3 3 1.08191900E+03 2.50000000E+01 1.00000000E+00 surfrate
  1 3 4 1.07690800E+03 2.50000000E+01 1.00000000E+00 surfrate
  1 3 5 1.07313600E+03 2.50000000E+01 1.00000000E+00 surfrate
  1 3 6 1.07040900E+03 2.50000000E+01 1.00000000E+00 surfrate
  1 3 7 1.06781800E+03 2.50000000E+01 1.00000000E+00 surfrate
  1 3 8 1.08950000E+03 2.50000000E+01 1.00000000E+00 surfrate
  1 4 1 1.10950000E+03 2.50000000E+01 1.00000000E+00 surfrate
  1 4 2 1.09950000E+03 2.50000000E+01 1.00000000E+00 surfrate
  1 4 3 1.08950000E+03 2.50000000E+01 1.00000000E+00 surfrate
  1 4 4 1.08450000E+03 2.50000000E+01 1.00000000E+00 surfrate
  1 4 5 1.07143400E+03 2.50000000E+01 1.00000000E+00 surfrate
  1 4 6 1.07950000E+03 2.50000000E+01 1.00000000E+00 surfrate
  1 4 7 1.07950000E+03 2.50000000E+01 1.00000000E+00 surfrate
  1 4 8 1.06495500E+03 2.50000000E+01 1.00000000E+00 surfrate
  1 4 9 1.09950000E+03 2.50000000E+01 1.00000000E+00 surfrate
  1 5 1 1.10950000E+03 2.50000000E+01 1.00000000E+00 surfrate
  1 5 2 1.09950000E+03 2.50000000E+01 1.00000000E+00 surfrate
  1 5 3 1.08450000E+03 2.50000000E+01 1.00000000E+00 surfrate
  1 5 4 1.07950000E+03 2.50000000E+01 1.00000000E+00 surfrate
  1 5 5 1.07750000E+03 2.50000000E+01 1.00000000E+00 surfrate
  1 5 6 1.06600900E+03 2.50000000E+01 1.00000000E+00 surfrate
  1 5 7 1.07650000E+03 2.50000000E+01 1.00000000E+00 surfrate
  1 5 8 1.06195500E+03 2.50000000E+01 1.00000000E+00 surfrate
  1 5 9 1.07040900E+03 2.50000000E+01 1.00000000E+00 surfrate
  1 5 10 1.07722700E+03 2.50000000E+01 1.00000000E+00 surfrate
  1 6 1 1.10450000E+03 2.50000000E+01 1.00000000E+00 surfrate
  1 6 2 1.09450000E+03 2.50000000E+01 1.00000000E+00 surfrate
  1 6 3 1.07950000E+03 2.50000000E+01 1.00000000E+00 surfrate
  1 6 4 1.07650000E+03 2.50000000E+01 1.00000000E+00 surfrate
  1 6 5 1.07250000E+03 2.50000000E+01 1.00000000E+00 surfrate
  1 6 6 1.06129200E+03 2.50000000E+01 1.00000000E+00 surfrate
  1 6 7 1.06950000E+03 2.50000000E+01 1.00000000E+00 surfrate
  1 6 8 1.05750000E+03 2.50000000E+01 1.00000000E+00 surfrate
  1 6 9 1.08450000E+03 2.50000000E+01 1.00000000E+00 surfrate
  1 6 10 1.09450000E+03 2.50000000E+01 1.00000000E+00 surfrate
  1 7 1 1.10450000E+03 2.50000000E+01 1.00000000E+00 surfrate
  1 7 2 1.08950000E+03 2.50000000E+01 1.00000000E+00 surfrate
  1 7 3 1.07450000E+03 2.50000000E+01 1.00000000E+00 surfrate
  1 7 4 1.07150000E+03 2.50000000E+01 1.00000000E+00 surfrate
  1 7 5 1.06950000E+03 2.50000000E+01 1.00000000E+00 surfrate
  1 7 6 1.05657500E+03 2.50000000E+01 1.00000000E+00 surfrate
  1 7 7 1.05300000E+03 2.50000000E+01 1.00000000E+00 surfrate
  1 7 8 1.06850000E+03 2.50000000E+01 1.00000000E+00 surfrate
  1 7 9 1.08950000E+03 2.50000000E+01 1.00000000E+00 surfrate
  1 8 2 1.07950000E+03 2.50000000E+01 1.00000000E+00 surfrate
  1 8 3 1.06950000E+03 2.50000000E+01 1.00000000E+00 surfrate
  1 8 4 1.06750000E+03 2.50000000E+01 1.00000000E+00 surfrate
  1 8 5 1.06250000E+03 2.50000000E+01 1.00000000E+00 surfrate
  1 8 6 1.04575000E+03 2.50000000E+01 1.00000000E+00 surfrate
  1 8 7 1.04875000E+03 2.50000000E+01 1.00000000E+00 surfrate
  1 8 8 1.06650000E+03 2.50000000E+01 1.00000000E+00 surfrate
  1 8 9 1.08950000E+03 2.50000000E+01 1.00000000E+00 surfrate
  1 9 2 1.07450000E+03 2.50000000E+01 1.00000000E+00 surfrate
  1 9 3 1.06450000E+03 2.50000000E+01 1.00000000E+00 surfrate
  1 9 4 1.06150000E+03 2.50000000E+01 1.00000000E+00 surfrate
  1 9 5 1.05750000E+03 2.50000000E+01 1.00000000E+00 surfrate
  1 9 6 1.04222700E+03 2.50000000E+01 1.00000000E+00 surfrate
  1 9 7 1.05450000E+03 2.50000000E+01 1.00000000E+00 surfrate
  1 9 8 1.06450000E+03 2.50000000E+01 1.00000000E+00 surfrate
  1 9 9 1.08950000E+03 2.50000000E+01 1.00000000E+00 surfrate
  1 10 2 1.06950000E+03 2.50000000E+01 1.00000000E+00 surfrate
  1 10 3 1.05950000E+03 2.50000000E+01 1.00000000E+00 surfrate
  1 10 4 1.05450000E+03 2.50000000E+01 1.00000000E+00 surfrate
  1 10 5 1.04550000E+03 2.50000000E+01 1.00000000E+00 surfrate
  1 10 6 1.04550000E+03 2.50000000E+01 1.00000000E+00 surfrate
  1 10 7 1.03768200E+03 2.50000000E+01 1.00000000E+00 surfrate
  1 10 8 1.05950000E+03 2.50000000E+01 1.00000000E+00 surfrate
  1 10 9 1.08750000E+03 2.50000000E+01 1.00000000E+00 surfrate
  1 10 10 1.09950000E+03 2.50000000E+01 1.00000000E+00 surfrate
  1 11 2 1.05450000E+03 2.50000000E+01 1.00000000E+00 surfrate
  1 11 3 1.04950000E+03 2.50000000E+01 1.00000000E+00 surfrate
  1 11 4 1.04450000E+03 2.50000000E+01 1.00000000E+00 surfrate
  1 11 5 1.04050000E+03 2.50000000E+01 1.00000000E+00 surfrate
  1 11 6 1.04150000E+03 2.50000000E+01 1.00000000E+00 surfrate
  1 11 7 1.03313600E+03 2.50000000E+01 1.00000000E+00 surfrate
  1 11 8 1.04950000E+03 2.50000000E+01 1.00000000E+00 surfrate
  1 11 9 1.07450000E+03 2.50000000E+01 1.00000000E+00 surfrate
  1 12 1 1.02650000E+03 2.50000000E+01 1.00000000E+00 surfrate
  1 12 2 1.02750000E+03 2.50000000E+01 1.00000000E+00 surfrate
  1 12 3 1.02750000E+03 2.50000000E+01 1.00000000E+00 surfrate
  1 12 4 1.03150000E+03 2.50000000E+01 1.00000000E+00 surfrate
  1 12 5 1.03150000E+03 2.50000000E+01 1.00000000E+00 surfrate
  1 12 6 1.03250000E+03 2.50000000E+01 1.00000000E+00 surfrate
  1 12 7 1.02859100E+03 2.50000000E+01 1.00000000E+00 surfrate
  1 12 8 1.03950000E+03 2.50000000E+01 1.00000000E+00 surfrate
  1 12 9 1.05950000E+03 2.50000000E+01 1.00000000E+00 surfrate
  1 13 1 9.91375000E+02 2.50000000E+01 1.00000000E+00 surfrate
  1 13 2 9.96375000E+02 2.50000000E+01 1.00000000E+00 surfrate
  1 13 3 1.00262500E+03 2.50000000E+01 1.00000000E+00 surfrate
  1 13 4 1.00887500E+03 2.50000000E+01 1.00000000E+00 surfrate
  1 13 5 1.01512500E+03 2.50000000E+01 1.00000000E+00 surfrate
  1 13 6 1.02137500E+03 2.50000000E+01 1.00000000E+00 surfrate
  1 13 7 1.02691900E+03 2.50000000E+01 1.00000000E+00 surfrate
  1 13 8 1.03200000E+03 2.50000000E+01 1.00000000E+00 surfrate
  1 13 9 1.04950000E+03 2.50000000E+01 1.00000000E+00 surfrate
  1 14 2 1.02950000E+03 2.50000000E+01 1.00000000E+00 surfrate
  1 14 3 1.03950000E+03 2.50000000E+01 1.00000000E+00 surfrate
  1 14 4 1.04450000E+03 2.50000000E+01 1.00000000E+00 surfrate
  1 14 5 1.04950000E+03 2.50000000E+01 1.00000000E+00 surfrate
  1 14 6 1.04950000E+03 2.50000000E+01 1.00000000E+00 surfrate
  1 14 7 1.04950000E+03 2.50000000E+01 1.00000000E+00 surfrate
  1 14 8 1.04950000E+03 2.50000000E+01 1.00000000E+00 surfrate
  1 14 9 1.03708100E+03 2.50000000E+01 1.00000000E+00 surfrate
  1 15 3 1.07950000E+03 2.50000000E+01 1.00000000E+00 surfrate
  1 15 4 1.07950000E+03 2.50000000E+01 1.00000000E+00 surfrate
  1 15 5 1.07950000E+03 2.50000000E+01 1.00000000E+00 surfrate
  1 15 6 1.07950000E+03 2.50000000E+01 1.00000000E+00 surfrate
END period  1

