# File generated by Flopy version 3.10.0.dev2 on 05/09/2025 at 15:27:47.
BEGIN options
  TIME_UNITS  seconds
END options

BEGIN dimensions
  NPER  12
END dimensions

BEGIN perioddata
  2.62800000E+06  1       1.00000000
  2.62800000E+06  15       1.10000000
  2.62800000E+06  15       1.10000000
  2.62800000E+06  15       1.10000000
  2.62800000E+06  15       1.10000000
  2.62800000E+06  15       1.10000000
  2.62800000E+06  15       1.10000000
  2.62800000E+06  15       1.10000000
  2.62800000E+06  15       1.10000000
  2.62800000E+06  15       1.10000000
  2.62800000E+06  15       1.10000000
  2.62800000E+06  15       1.10000000
END perioddata

