# File generated by Flopy version 3.10.0.dev2 on 05/09/2025 at 15:27:47.
BEGIN options
END options

BEGIN griddata
  icelltype
    CONSTANT  1
  k
    INTERNAL  FACTOR  1.0
         0.00200000       0.00200000       0.00000000       0.00000000       0.00000000       0.00000000       0.00000000       0.00000000       0.00000000       0.00000000
    4.00000000E-04       0.00200000       0.00200000       0.00000000       0.00000000  4.00000000E-04  4.00000000E-04  4.00000000E-04       0.00000000       0.00000000
         0.00000000  4.00000000E-04       0.00200000       0.00200000  4.00000000E-04  4.00000000E-04  4.00000000E-04  4.00000000E-04       0.00000000       0.00000000
    4.00000000E-04  4.00000000E-04  4.00000000E-04       0.00200000       0.00200000       0.00200000  4.00000000E-04  4.00000000E-04  4.00000000E-04       0.00000000
    4.00000000E-04  4.00000000E-04  4.00000000E-04       0.00200000       0.00200000       0.00200000       0.00200000       0.00200000       0.00200000       0.00200000
    4.00000000E-04  4.00000000E-04  4.00000000E-04       0.00200000       0.00200000       0.00200000       0.00200000       0.00200000  4.00000000E-04  4.00000000E-04
    4.00000000E-04  4.00000000E-04  4.00000000E-04       0.00200000       0.00200000       0.00200000       0.00200000       0.00200000  4.00000000E-04       0.00000000
         0.00000000  4.00000000E-04  4.00000000E-04       0.00200000       0.00200000       0.00200000       0.00200000  4.00000000E-04  4.00000000E-04       0.00000000
         0.00000000  4.00000000E-04  4.00000000E-04       0.00200000       0.00200000       0.00200000       0.00200000  4.00000000E-04  4.00000000E-04       0.00000000
         0.00000000  4.00000000E-04  4.00000000E-04       0.00200000       0.00200000       0.00200000       0.00200000  4.00000000E-04  4.00000000E-04  4.00000000E-04
         0.00000000  4.00000000E-04  4.00000000E-04       0.00200000       0.00200000       0.00200000       0.00200000  4.00000000E-04  4.00000000E-04       0.00000000
    4.00000000E-04  4.00000000E-04       0.00200000       0.00200000       0.00200000       0.00200000       0.00200000  4.00000000E-04  4.00000000E-04       0.00000000
         0.00200000       0.00200000       0.00200000       0.00200000       0.00200000       0.00200000       0.00200000       0.00200000       0.00200000       0.00000000
         0.00000000  4.00000000E-04  4.00000000E-04  4.00000000E-04  4.00000000E-04  4.00000000E-04  4.00000000E-04  4.00000000E-04       0.00200000       0.00000000
         0.00000000       0.00000000  4.00000000E-04  4.00000000E-04  4.00000000E-04  4.00000000E-04       0.00000000       0.00000000       0.00000000       0.00000000
END griddata

