# File generated by Flopy version 3.10.0.dev2 on 05/09/2025 at 15:27:47.
BEGIN options
  auxiliary  TEMPERATURE
END options

BEGIN dimensions
  MAXBOUND  122
END dimensions

BEGIN period  1
  1 1 2.00000000E+00 0.00000000E+00
  1 4 2.00000000E+00 1.00000000E+02
  1 1198 2.00000000E+00 5.00000000E+01
  1 1269 2.00000000E+00 2.50000000E+01
  1 1443 2.00000000E+00 1.25000000E+01
  1 1444 2.00000000E+00 6.25000000E+00
  1 1460 2.00000000E+00 1.87500000E+01
  1 1462 2.00000000E+00 3.12500000E+00
  1 1475 2.00000000E+00 7.50000000E+01
  1 1500 2.00000000E+00 6.25000000E+01
  1 1516 2.00000000E+00 1.56250000E+01
  1 1521 2.00000000E+00 2.18750000E+01
  1 1530 2.00000000E+00 3.75000000E+01
  1 1546 2.00000000E+00 4.37500000E+01
  1 1553 2.00000000E+00 3.12500000E+01
  1 1564 2.00000000E+00 2.81250000E+01
  1 1582 2.00000000E+00 4.06250000E+01
  1 1585 2.00000000E+00 4.68750000E+01
  1 1587 2.00000000E+00 3.43750000E+01
  1 1591 2.00000000E+00 5.62500000E+01
  1 1597 2.00000000E+00 8.75000000E+01
  1 1609 2.00000000E+00 9.37500000E+01
  1 1610 2.00000000E+00 8.12500000E+01
  1 1615 2.00000000E+00 7.81250000E+01
  1 1617 2.00000000E+00 6.87500000E+01
  1 1626 2.00000000E+00 5.31250000E+01
  1 1644 2.00000000E+00 9.06250000E+01
  1 1650 2.00000000E+00 9.68750000E+01
  1 1653 2.00000000E+00 8.43750000E+01
  1 1656 2.00000000E+00 5.93750000E+01
  1 1660 2.00000000E+00 7.18750000E+01
  1 1663 2.00000000E+00 6.56250000E+01
  1 2 1.00000000E+00 0.00000000E+00
  1 3 1.00000000E+00 0.00000000E+00
  1 7 1.00000000E+00 0.00000000E+00
  1 13 1.00000000E+00 0.00000000E+00
  1 211 1.00000000E+00 0.00000000E+00
  1 400 1.00000000E+00 0.00000000E+00
  1 401 1.00000000E+00 0.00000000E+00
  1 407 1.00000000E+00 0.00000000E+00
  1 413 1.00000000E+00 0.00000000E+00
  1 422 1.00000000E+00 0.00000000E+00
  1 520 1.00000000E+00 0.00000000E+00
  1 560 1.00000000E+00 0.00000000E+00
  1 602 1.00000000E+00 0.00000000E+00
  1 606 1.00000000E+00 0.00000000E+00
  1 618 1.00000000E+00 0.00000000E+00
  1 624 1.00000000E+00 0.00000000E+00
  1 625 1.00000000E+00 0.00000000E+00
  1 675 1.00000000E+00 0.00000000E+00
  1 771 1.00000000E+00 0.00000000E+00
  1 784 1.00000000E+00 0.00000000E+00
  1 786 1.00000000E+00 0.00000000E+00
  1 787 1.00000000E+00 0.00000000E+00
  1 793 1.00000000E+00 0.00000000E+00
  1 794 1.00000000E+00 0.00000000E+00
  1 802 1.00000000E+00 0.00000000E+00
  1 810 1.00000000E+00 0.00000000E+00
  1 813 1.00000000E+00 0.00000000E+00
  1 814 1.00000000E+00 0.00000000E+00
  1 815 1.00000000E+00 0.00000000E+00
  1 921 1.00000000E+00 0.00000000E+00
  1 5 1.80000000E+00 8.00000000E+01
  1 9 1.80000000E+00 8.00000000E+01
  1 259 1.80000000E+00 8.00000000E+01
  1 275 1.80000000E+00 8.00000000E+01
  1 309 1.80000000E+00 8.00000000E+01
  1 329 1.80000000E+00 8.00000000E+01
  1 333 1.80000000E+00 8.00000000E+01
  1 334 1.80000000E+00 8.00000000E+01
  1 335 1.80000000E+00 8.00000000E+01
  1 343 1.80000000E+00 8.00000000E+01
  1 344 1.80000000E+00 8.00000000E+01
  1 346 1.80000000E+00 8.00000000E+01
  1 348 1.80000000E+00 8.00000000E+01
  1 354 1.80000000E+00 8.00000000E+01
  1 355 1.80000000E+00 8.00000000E+01
  1 356 1.80000000E+00 8.00000000E+01
  1 440 1.80000000E+00 8.00000000E+01
  1 446 1.80000000E+00 8.00000000E+01
  1 457 1.80000000E+00 8.00000000E+01
  1 461 1.80000000E+00 8.00000000E+01
  1 466 1.80000000E+00 8.00000000E+01
  1 476 1.80000000E+00 8.00000000E+01
  1 480 1.80000000E+00 8.00000000E+01
  1 486 1.80000000E+00 8.00000000E+01
  1 517 1.80000000E+00 8.00000000E+01
  1 528 1.80000000E+00 8.00000000E+01
  1 534 1.80000000E+00 8.00000000E+01
  1 542 1.80000000E+00 8.00000000E+01
  1 632 1.80000000E+00 8.00000000E+01
  1 753 1.80000000E+00 8.00000000E+01
  1 811 1.80000000E+00 8.00000000E+01
  1 820 1.80000000E+00 8.00000000E+01
  1 825 1.80000000E+00 8.00000000E+01
  1 831 1.80000000E+00 8.00000000E+01
  1 833 1.80000000E+00 8.00000000E+01
  1 835 1.80000000E+00 8.00000000E+01
  1 836 1.80000000E+00 8.00000000E+01
  1 928 1.80000000E+00 8.00000000E+01
  1 930 1.80000000E+00 8.00000000E+01
  1 933 1.80000000E+00 8.00000000E+01
  1 1092 1.80000000E+00 8.00000000E+01
  1 1097 1.80000000E+00 8.00000000E+01
  1 1208 1.80000000E+00 8.00000000E+01
  1 1213 1.80000000E+00 8.00000000E+01
  1 1216 1.80000000E+00 8.00000000E+01
  1 1218 1.80000000E+00 8.00000000E+01
  1 1243 1.80000000E+00 8.00000000E+01
  1 1248 1.80000000E+00 8.00000000E+01
  1 1250 1.80000000E+00 8.00000000E+01
  1 1258 1.80000000E+00 8.00000000E+01
  1 1263 1.80000000E+00 8.00000000E+01
  1 1270 1.80000000E+00 8.00000000E+01
  1 1277 1.80000000E+00 8.00000000E+01
  1 1390 1.80000000E+00 8.00000000E+01
  1 1394 1.80000000E+00 8.00000000E+01
  1 1448 1.80000000E+00 8.00000000E+01
  1 1456 1.80000000E+00 8.00000000E+01
  1 1463 1.80000000E+00 8.00000000E+01
  1 1678 1.80000000E+00 8.00000000E+01
  1 1686 1.80000000E+00 8.00000000E+01
END period  1

