# File generated by Flopy version 3.10.0.dev2 on 05/09/2025 at 15:27:47.
BEGIN options
END options

BEGIN dimensions
  NLAY  1
  NCPL  1692
  NVERT  3750
END dimensions

BEGIN griddata
  top
    CONSTANT       1.00000000
  botm
    CONSTANT       0.00000000
END griddata

BEGIN vertices
  1    1853.79691095      19.65669265
  2    1824.00000000      12.20994012
  3    1748.87652253      70.86482022
  4    1584.17556506     538.25803451
  5    1136.15127899     324.69292628
  6    1095.47403968     255.48985086
  7    1059.37412208     515.94370072
  8    1188.73398893     500.92058648
  9    1185.69225439     711.01964086
  10    1052.75056914     976.64520715
  11     503.18413893      24.38914370
  12     644.02752184     105.56359189
  13     615.77516433     101.08521652
  14    1759.22852147      85.98509488
  15    1792.00000000      19.41729302
  16    1812.04840346      21.75767972
  17    1974.31523240     168.77618332
  18    1982.60571621     176.00000000
  19    1920.00000000      19.05905086
  20    1894.46656004      19.05905086
  21    1807.30517200     552.03740635
  22    1829.74735200     570.67718497
  23    1828.17114421     565.69698398
  24    1796.54078137     310.30893368
  25    1956.45856106     343.58161284
  26    1975.94286869     304.00000000
  27    1810.73457400     452.90048418
  28    1762.42512003     461.24298037
  29    1582.46220885     307.41048456
  30    1596.64793709     313.62763225
  31    1648.94883546     322.02051668
  32    1059.08262246      23.79477189
  33    1134.84805537     107.40296795
  34    1122.80483989     127.43834533
  35    1227.00000000       3.25237351
  36    1205.43560277      22.53349872
  37     683.09268359     300.32363554
  38    1065.38152820     176.57357017
  39    1888.00000000     983.73025104
  40    1911.85902558     973.51069698
  41    1832.35209149     891.17269062
  42    1494.88774099     914.58993124
  43    1610.96927970     929.72778094
  44    1619.05082133     940.03109291
  45    1358.77676067     751.03954195
  46    1387.80475115     736.26809792
  47    1582.78869964     526.80983464
  48    1617.66473459     496.52179184
  49    1612.92369789     514.30576837
  50    1043.31776731     369.10877809
  51    1050.18531218     332.23888722
  52    1079.03239661     338.25524525
  53    1036.90309903     447.91111846
  54     997.65231824     461.58290742
  55    1167.24264240     328.31873489
  56    1183.94176127     310.09712500
  57    1212.15982685     229.54327803
  58    1175.70005407     291.91055344
  59    1077.56493224     302.10640975
  60    1073.25476776     279.49672771
  61    1095.49516957     259.26278315
  62    1028.50393790     509.20611577
  63    1044.45575832     504.51504187
  64    1050.32273141     483.10060724
  65    1012.94006360     492.19727836
  66    1030.28470255     464.64650076
  67    1017.74834853     470.83967705
  68    1229.06626656     523.86166681
  69    1217.99268466     501.45986279
  70    1147.90045089     553.91749162
  71    1155.80812056     549.79454861
  72    1185.10070084     504.41200059
  73    1193.82136546     686.32064051
  74    1150.28621409     746.63868345
  75    1070.20770692     882.05356560
  76    1282.69358685     429.32675206
  77    1293.89419365     410.79723199
  78    1307.84193337     451.06486948
  79    1327.99148624     417.31932877
  80    1337.57399999     414.14792862
  81    1335.96603230     413.74129760
  82    1359.76617019     253.56436026
  83    1185.38685924     475.77584761
  84    1203.20923486     457.34994553
  85    1190.53611452     437.22149579
  86    1166.96614585     440.35900071
  87    1157.31445135     459.04848790
  88    1156.96716078     456.93680704
  89    1436.89138954     296.97403302
  90    1356.84828293     297.65734975
  91    1396.85965747     308.98230087
  92    1053.62182080     963.59268910
  93    1054.60105799     920.89963712
  94    1033.15112634     935.42697988
  95    1033.70774408     944.20839473
  96    1015.25000000     982.88174814
  97    1045.75000000     982.88174814
  98    1076.25000000     988.13767778
  99    1098.97970595     977.02164354
  100    1336.49403422     818.47952625
  101    1342.11098270     901.16473005
  102    1347.57772202     866.75878191
  103    1143.29936482     978.22406700
  104    1161.24162107     929.50224473
  105    1168.75268222     934.53708462
  106     400.35061936     390.53144596
  107      72.58361337     489.19774741
  108      22.05300726     383.24475623
  109     240.00000000      18.02700949
  110     144.00000000      12.01496730
  111     496.00000000      18.00502447
  112     464.00000000      18.00502447
  113     462.15585531      19.64380674
  114     333.09838533      22.82098178
  115     216.30422311     239.56333101
  116     249.12934983      26.12982862
  117     408.11618339     369.22497679
  118     575.12311530     216.66560695
  119     601.14487131     134.58529518
  120    1856.00000000      16.96717343
  121    1888.00000000      12.83483510
  122    1854.07252531      29.64104286
  123    1728.00000000      25.99324126
  124    1696.00000000      23.90429225
  125    1686.42162253      27.29332707
  126    1718.64464118      29.68094618
  127    1714.28726669      75.63834954
  128    1764.37650289     132.08527517
  129    1747.57705682     105.93165686
  130    1782.21857050      87.98778950
  131    1783.00204343     125.02766543
  132    1800.28767055     130.75413383
  133    1582.78426630     271.69930465
  134    1600.00000000      20.60993829
  135    1568.00000000      15.58478157
  136    1986.15208755     208.00000000
  137    1904.92339556     266.26623483
  138    1930.65693789      28.00550929
  139    1981.36741673      80.00000000
  140    1984.00000000      16.00000000
  141    1948.59237126     101.69850829
  142    1989.47363556     112.00000000
  143    1978.51300107      87.70552489
  144    1864.04632675     398.73739584
  145    1888.30803279     387.70030151
  146    1998.10129511     599.00000000
  147    1986.96784237     609.38957942
  148    1983.49440312     642.50000000
  149    1850.61903392     737.39472116
  150    1878.17700859     427.42974291
  151    1863.42320549     400.77902632
  152    1836.53325158     433.02931438
  153    1836.22791726     415.22545525
  154    1965.57625177     493.46019956
  155    1943.94227376     450.95727525
  156    1932.75225284     394.70741006
  157    1973.15635685     433.84012935
  158    1864.55304724     580.30715230
  159    1873.11760635     613.48598896
  160    1852.00756001     540.01207603
  161    1863.82788568     497.78853296
  162    1839.12108115     511.38108007
  163    1864.27307325     483.92403428
  164    1847.53717971     467.70257543
  165    1884.98540656     466.32042165
  166    1855.35066569     446.52106909
  167    1868.87392458     443.21072197
  168    1807.11771528     533.00782303
  169    1831.10826111     509.17774223
  170    1635.32622040     543.07707220
  171    1635.09501158     543.08535653
  172    1610.86582894     563.14004733
  173    1791.57349465     558.66214046
  174    1989.89241347     368.00000000
  175    1973.40207363     336.00000000
  176    1972.75548120     336.90419085
  177    1738.61219681     373.20459613
  178    1757.82030432     344.19244151
  179    1925.50821291     263.06886588
  180    1820.37784842     288.99252879
  181    1834.60431212     294.15785188
  182    1860.88522281     279.38425077
  183    1343.00000000       3.71631983
  184    1300.06904553      77.97234262
  185    1295.82461921      71.86138728
  186    1739.76443002     379.57132162
  187    1726.97270676     423.09056647
  188    1768.14878811     547.59165662
  189    1747.64784299     561.23683819
  190    1721.98566339     487.09517551
  191    1719.63425478     445.31049593
  192    1723.70186181     450.87813974
  193    1679.29542912     355.51202945
  194    1718.19069875     358.38046673
  195    1696.49857095     330.99518565
  196    1720.86154514     334.38344105
  197    1638.39359565     332.88007836
  198    1604.53156105     335.35955888
  199    1600.34694672     343.76894061
  200    1679.74582299     361.03899229
  201    1611.99983474     483.45099304
  202    1038.50000000      14.93280535
  203    1008.00000000      16.32749705
  204    1015.51583844      23.69258275
  205    1067.50000000      19.35291837
  206    1132.00587451      98.07076307
  207    1103.17470276     152.64824020
  208    1111.60023048     130.85343272
  209    1091.12902645     113.74660016
  210    1077.25792963     153.18637193
  211    1300.99535417      47.27036676
  212    1322.34920272      21.88961373
  213    1320.35800342      36.59770909
  214    1183.50000000      12.46238714
  215    1293.61325670     106.74913698
  216    1268.30332072      68.29144354
  217    1054.08719275      52.67524194
  218    1105.58519958     243.67244215
  219    1112.09910679     173.15854097
  220    1124.72746361     179.31987167
  221    1128.96488835     202.61352381
  222    1087.04400220     189.23863681
  223    1087.45017232     208.80005294
  224    1103.74326460     218.32588548
  225    1824.00000000     990.44125117
  226    1800.72567560     977.23437071
  227    1912.96040385     959.51287016
  228    1920.00000000     981.43042044
  229    1952.00000000     983.36618971
  230    1984.00000000     984.00000000
  231    1973.84342622     880.27681047
  232    1829.49381759     873.77068183
  233    1815.65414665     830.24897426
  234    1761.87892151     895.59564849
  235    1790.25525966     890.93484482
  236    1800.83585832     861.05157396
  237    1801.64928724     862.97959355
  238    1931.90079257     818.52376408
  239    1979.65441351     817.53190754
  240    1803.46498159     812.23038728
  241    1898.82123569     817.91981017
  242    1846.94392879     833.05164961
  243    1853.83245486     853.46456265
  244    1696.00000000     990.01356012
  245    1991.69322104     792.00000000
  246    1727.24052426     882.40110506
  247    1706.66410548     892.77074954
  248    1632.00000000     983.95675090
  249    1600.00000000     977.93889500
  250    1610.96927970     972.97961456
  251    1664.00000000     987.44645249
  252    1651.44311094     977.87854003
  253    1685.42840403     981.87425681
  254    1517.89920019     941.16634667
  255    1455.32758781     898.12220073
  256    1503.11223161     898.82229051
  257    1574.30530332     724.65948295
  258    1558.08697578     734.22866981
  259    1576.85144171     694.25765769
  260    1485.72963009     757.57253528
  261    1511.63919966     746.84942365
  262    1396.78118393     739.98252203
  263    1380.85437000     715.48367898
  264    1594.01592667     622.67990344
  265    1509.20857204     515.59015125
  266    1493.05210055     548.10516568
  267    1486.67757069     550.54830465
  268    1534.11573518     478.79613171
  269     863.88172901     979.20248858
  270     871.59216940     978.14071812
  271     861.59305474     167.92745659
  272    1061.86876219     177.50101923
  273    1041.01306419     162.22101856
  274    1024.11935676     174.14726976
  275     865.56665178     492.64278966
  276     803.83112641     384.56934400
  277     802.77103836     403.08434911
  278    1037.83570163     413.32239959
  279    1028.53659243     425.59905797
  280    1014.52911083     313.06690906
  281    1020.55063820     328.81487490
  282    1032.97875491     288.50944226
  283    1052.68505991     310.16988223
  284    1049.01536265     330.49104591
  285    1063.64653106     412.11265609
  286     841.92285120     389.72129113
  287     829.19978419     373.16496717
  288     880.15493034     449.33075563
  289     833.74382578     421.34121502
  290     832.89478059     422.14044604
  291     882.59825946     416.34526744
  292     885.76723393     420.39435055
  293     922.49312608     378.26197577
  294    1201.73960181     316.35984924
  295    1205.72706693     345.71846258
  296    1232.83534745     356.51719681
  297    1234.90536279     355.46143577
  298    1199.66395135     418.58697356
  299    1198.63593154     416.03047242
  300    1245.78161450     407.57780217
  301    1209.20004863     387.89623556
  302    1224.37823612     384.23936785
  303    1159.54380817     419.31596799
  304    1172.61812044     403.56075929
  305    1242.02271329     252.59770791
  306    1225.46771286     231.28985037
  307    1132.94041750     321.19437815
  308    1144.94870993     294.34489398
  309    1134.12043592     277.76521565
  310    1111.50911748     278.79992477
  311    1142.73915402     483.57406632
  312    1153.14234205     503.32633542
  313    1144.83820948     516.57179505
  314    1190.29311949     614.84552769
  315    1169.53881556     588.62494963
  316    1196.44825340     656.50130886
  317    1189.16954152     678.17487996
  318    1174.57804975     632.45862079
  319    1172.91248515     632.84581495
  320    1135.23260928     587.43987367
  321    1144.28597135     596.90500445
  322    1144.70501611     610.43552272
  323    1122.78984801     630.17791582
  324    1057.67290437     539.60245172
  325    1023.05873212     524.61126577
  326     997.86089955     530.98506005
  327    1043.63601709     552.02987134
  328    1295.18084590     598.65009241
  329    1267.16675031     586.09909548
  330    1173.95921618     576.92742744
  331    1158.24298298     550.18687582
  332    1184.76902025     537.01214939
  333    1155.27167889     783.09346623
  334    1145.68031623     760.76214067
  335    1123.52957842     808.15716429
  336    1160.06310642     785.15793834
  337    1158.79909462     709.40182779
  338    1146.90891159     737.87302738
  339    1120.64615542     726.90513764
  340    1117.55346108     707.01010005
  341    1134.88814600     887.93250693
  342    1087.61566149     888.94440647
  343    1175.68445700     817.70359745
  344    1184.09248351     820.66308349
  345    1101.60392091     841.04286212
  346    1112.81546775     861.80975575
  347    1122.87120389     864.70305265
  348    1124.14753661     813.34817662
  349    1147.55698075     831.16636031
  350    1147.06287186     849.21025352
  351    1218.69797759     917.51750445
  352    1205.10539105     913.33325598
  353    1206.01758104     865.88513330
  354    1162.20574996     888.68056449
  355    1164.84108541     891.54943167
  356    1190.77168979     891.29652884
  357    1164.50619299     861.77847718
  358    1183.99208192     853.37010326
  359    1204.18732788     866.27614444
  360    1230.79256722     484.05798025
  361    1258.78467764     491.15294806
  362    1275.63003094     471.92287659
  363    1318.94742218     370.66288277
  364    1370.41865758     382.69190388
  365    1382.81386905     382.54347698
  366    1345.76578825     363.08549036
  367    1384.94288033     345.67613670
  368    1354.45799234     339.13892444
  369    1374.07573304     333.25335356
  370    1368.89953214     332.18823840
  371    1300.68882904     501.72520011
  372    1316.04554024     506.77554485
  373    1291.86416031     473.90849231
  374    1309.01919637     458.36642138
  375    1572.82628167     227.24871359
  376    1481.33144938     114.90248383
  377    1510.13407340     112.52927463
  378    1513.84542977     101.66724523
  379    1499.16124300      76.13114507
  380    1569.30394255      52.93013040
  381    1444.62631969     250.44410228
  382    1490.82023896     235.47907493
  383    1399.64368702     235.08321768
  384    1362.61018957     179.80556583
  385    1390.08950003     200.54495082
  386    1385.73590122     219.07185357
  387    1392.00410272     161.88518612
  388    1264.03966588     364.34934156
  389    1316.08434084     369.38809923
  390    1288.01181059     391.92488409
  391    1269.74527987     386.35237378
  392    1436.05720870     316.13444018
  393    1419.28770531     325.18819374
  394    1414.56744798     342.71594260
  395    1420.86383668     352.99430901
  396    1396.93372942     249.44420497
  397    1369.74328974     260.57277652
  398    1371.95766565     284.75878756
  399    1395.53797735     295.20487959
  400    1414.77438786     280.84894933
  401    1415.63198777     267.26952434
  402    1332.33695544     265.41673847
  403    1055.62860155     759.29685535
  404    1058.75172557     781.73397481
  405     959.01285418     791.52265362
  406    1008.86410578     785.44333104
  407     924.74348997     875.05022901
  408     935.80017476     867.99603401
  409     998.53503897     834.88303842
  410     982.74082736     858.43698095
  411     969.33180781     808.43402811
  412     931.01846095     771.87727544
  413     913.67604188     798.53020938
  414    1004.97045434     710.01708514
  415     968.28767220     698.48717583
  416     973.46518978     704.56572090
  417     953.12500000     988.91970788
  418     954.46914881     909.03819677
  419     958.88870943     886.83799783
  420     986.32757836     875.28961851
  421     964.03999814     948.91334275
  422     984.37500000     981.28107737
  423     975.13647321     977.54460941
  424    1005.73902511     974.40878207
  425    1007.45433938     965.76560662
  426    1137.25000000     984.18266471
  427    1106.75000000     984.50904781
  428    1313.19686222     834.36505873
  429    1304.62558229     867.91390524
  430    1313.69331299     861.04714597
  431    1275.20257512     898.82696132
  432    1303.37844012     874.86441113
  433    1306.48390093     919.67926927
  434    1319.68253704     903.94750323
  435    1437.70092981     865.62560873
  436    1428.08479617     814.70026183
  437    1454.83536270     833.87217663
  438    1451.64475406     854.88558240
  439    1355.61393895     860.98376901
  440    1342.41141409     818.72989813
  441    1280.07700353     948.22111611
  442    1319.83086670     978.42520654
  443    1289.75000000     978.06274222
  444    1284.94260756     974.63416737
  445    1306.17596514     931.49319881
  446    1330.14615094     948.68184649
  447    1176.29871725     952.73232238
  448    1226.38976626     974.08846967
  449    1208.57934647     951.25920175
  450     451.79465634     383.77898542
  451     408.63355799     386.11167026
  452     408.37844081     386.53266223
  453     330.22776162     517.05975104
  454     387.63200196     419.68233481
  455     305.07687156     485.47163265
  456     331.64049789     488.37812397
  457     267.40136438     468.07505242
  458     246.48721749     465.65691353
  459     358.01392602     418.39113973
  460     300.18663760     745.24899339
  461     305.05885259     725.50837655
  462     343.50378124     559.31700257
  463     367.28313328     519.88915764
  464     347.42744937     528.80238143
  465     443.38267831     647.75176795
  466      21.00641479     484.37500000
  467      20.66038687     390.62500000
  468      22.68271295     492.16409550
  469      88.95280874     447.10413493
  470      88.29595317     425.13805642
  471      51.43453213     749.09580908
  472      64.63204344     668.55958318
  473      18.41512629     750.62648530
  474      50.65140328     748.54298978
  475      62.67139737     748.84254331
  476     151.83064660     681.58167893
  477     160.80186063     709.31708640
  478     152.66127750     640.42289870
  479     163.16856447     667.04321714
  480     192.42550719     671.66222410
  481     267.13952309     501.84971334
  482     292.83686035     503.39984498
  483     304.77339252     528.48622665
  484     228.12067502     586.20492495
  485     204.72019239     560.73343404
  486     265.40582366     503.36254329
  487     230.36575271     537.83745834
  488     100.16449652     187.48909802
  489      16.45877803     265.62500000
  490      20.62138628     296.87500000
  491       8.59887139     359.37500000
  492      21.92900630     328.12500000
  493      22.94103769     336.21377127
  494      49.50986804     360.83499157
  495      80.00000000      15.26953396
  496      17.89323971      48.72114308
  497      59.32832057      24.94271339
  498       1.97574633      93.75000000
  499      12.69485978      85.72218518
  500      97.88316197     101.65413147
  501     176.00000000      16.60286470
  502     169.27601076      24.64352050
  503     208.00000000      13.15179332
  504     212.97407938      18.02700949
  505     114.46809740      26.76987489
  506     112.00000000      26.33077104
  507     110.21072624      27.02467976
  508      95.55774157      54.81479404
  509     137.27063829      50.98765961
  510     128.54267749      73.66139607
  511     112.00259895      75.21903215
  512     107.06739137     136.51453604
  513     112.18016526     117.71109193
  514     383.98429923     202.81675759
  515     432.00000000      16.31540423
  516     461.91253705      50.59801968
  517     328.06779327     124.30920946
  518     368.00000000      14.61440991
  519     336.00000000      19.58959224
  520     179.11921015     232.07801037
  521     192.60818198     225.13501022
  522     272.00000000      17.09765360
  523     304.00000000      19.74517538
  524     294.43055121      25.95602285
  525     327.60201513     166.14379875
  526     321.90611416     193.97247825
  527     293.52384218     183.70775820
  528     284.57383644     190.80404683
  529     426.89878294     348.35208570
  530     419.25288583     315.02654125
  531     416.00813911     320.01372640
  532     498.47691579     444.30752816
  533     446.75414434     505.05146204
  534     405.69925497     500.61016118
  535     622.68743087     390.17248266
  536     622.59554947     348.14256850
  537     632.69420449     315.01597908
  538     635.36379987     314.29471636
  539     451.89527308     352.97600336
  540     569.53097391     209.71842525
  541     557.26606848     211.35809660
  542     463.56284381     171.08039278
  543      26.55229705     873.74578702
  544     109.75000000     984.10397367
  545      18.88214486     859.37500000
  546     140.62500000     987.04728361
  547     698.19656886     981.10033626
  548     639.90257503     978.11576321
  549     470.32889461     933.90419256
  550     454.71317130     911.56224283
  551     492.10605025     896.12930272
  552     514.59292443     886.68073280
  553     536.14053560     900.74928264
  554     546.87500000     982.41823576
  555     515.62500000     986.43655000
  556     519.83814969     982.31184224
  557     609.37500000     984.11124001
  558     578.12500000     979.37536204
  559     593.71723928     973.78322150
  560     557.62138433     972.94329525
  561     551.44683343     947.73688243
  562     568.04358614     933.68931681
  563     686.65003722     784.72410397
  564     367.22590098     975.50853464
  565     482.55381383     970.58815474
  566     445.94769124     982.43615714
  567     452.83388002     955.15178238
  568     460.28891804     952.74418903
  569     373.48275067     916.08172208
  570     367.16371276     958.45099657
  571     348.70076920     939.60945343
  572     390.62500000     985.92187008
  573     421.87500000     983.68973468
  574     412.94838013     975.98726340
  575     455.71045970     907.61031705
  576     484.71673040     892.87017409
  577     475.94487310     867.36897493
  578     413.28745297     959.96964477
  579     434.54070258     946.25423700
  580     433.23267881     924.55065100
  581     395.40867721     942.88318315
  582     410.38581637     914.25318946
  583     396.13663061     926.70237566
  584     400.60187733     780.66528980
  585     410.07552034     792.46977630
  586     375.53934987     781.21899833
  587     365.30062781     811.16600587
  588     372.48698109     891.22134348
  589     343.70679171     854.36358703
  590     446.21128268     865.47267922
  591     434.69943583     875.16256238
  592     448.03402082     836.89245890
  593     431.35555340     827.01140163
  594     528.00000000      11.95034791
  595     551.50618151      23.73267498
  596     608.41289277      67.19703408
  597     612.11567344      61.09138449
  598     592.00000000      11.34467036
  599     599.43725591      18.38566046
  600     560.00000000      17.69798832
  601     556.90997397      21.85036897
  602     576.62415876      43.76546999
  603     592.63093032      40.26206339
  604     855.85426022      54.62004490
  605     785.25686212     412.65026098
  606     627.48665358     257.56369333
  607     660.18114620     290.10111558
  608     651.90304093     292.40196633
  609     516.50682210     335.83960978
  610     496.48056728     344.87594789
  611     514.32334323     305.52577303
  612     521.33780017     317.17725128
  613     589.53308706     353.99696920
  614     558.00280171     318.78837322
  615     540.08075629     356.44189632
  616     490.95303698     264.87918725
  617     486.99555810     209.17194167
  618     610.42785623     249.69491284
  619     624.52596426     256.25209125
  620     623.41180024     256.42871637
  621     601.89592029     222.12535037
  622     642.75021160     133.84068972
  623     625.54285784     144.64187321
  624     595.07602026     120.26361093
  625     596.65351635     113.75187864
  626     540.12745928      48.16961258
  627    1845.02924470      69.44540384
  628    1823.91274987      51.99857550
  629    1833.02410016      53.59561857
  630    1797.45980256      69.16080611
  631    1796.47135666      76.79526291
  632    1887.08564004      42.71058888
  633    1872.89282674      46.59958356
  634    1866.16588683      68.33301983
  635    1908.62132773      62.20679755
  636    1760.00000000      12.09383862
  637    1733.50624667      26.97412592
  638    1755.14416560      52.32887495
  639    1785.85064081      23.38490354
  640    1780.14849318      46.94193678
  641    1756.20949935     145.14479966
  642    1729.58831655     106.31215735
  643    1627.77464352     177.27192477
  644    1519.94242409     275.88635936
  645    1689.05459078     314.21239358
  646    1591.14456932     268.39526794
  647    1671.39722961     179.18751247
  648    1722.27292670     333.29612665
  649    1754.71537343     339.42138042
  650    1784.96690437     304.27632142
  651    1775.93565970     277.64477620
  652    1758.51641099     313.24616809
  653    1754.74201165     221.86348847
  654    1814.52422432     216.10161799
  655    1814.04702437     262.75292863
  656    1664.00000000      19.16381057
  657    1601.07577980      21.75343347
  658    1600.41209911      64.66660921
  659    1592.48511353      53.63992308
  660    1504.00000000       8.86502378
  661    1945.97455708     100.32365347
  662    1938.15505693      74.93168072
  663    1977.99530099      22.00469901
  664    1952.00000000      22.02963564
  665    1942.74874902      28.76233227
  666    1953.37986312      59.18933089
  667    1987.77963246      48.00000000
  668    1976.31137794      66.35117047
  669    1939.56274808     147.39090397
  670    1955.70729472     123.47488356
  671    1973.90143699     167.12174398
  672    1986.53954061     144.00000000
  673    1979.93826284     127.03909080
  674    1653.12564702     745.82583049
  675    1645.14427371     774.44496277
  676    1624.90946990     780.21646272
  677    1602.44208041     752.61670672
  678    1556.82377250     758.67833364
  679    1581.15737639     766.52640197
  680    1635.01257884     822.39812772
  681    1659.92706115     788.02798529
  682    1681.18472932     787.42509699
  683    1651.90146959     815.51712073
  684    1724.50732078     802.42073575
  685    1799.25762324     321.51326469
  686    1775.69396765     349.83053821
  687    1892.94406386     361.27426085
  688    1934.04465256     338.23361409
  689    1917.66666913     361.54632742
  690    1989.11940250     464.00000000
  691    1973.40805811     496.00000000
  692    1972.62354807     495.16653592
  693    1980.02035299     526.50000000
  694    1957.23140945     610.44347649
  695    1996.69619090     715.00000000
  696    1887.16465178     706.71730367
  697    1886.80703435     728.85197207
  698    1988.26782469     671.50000000
  699    1977.67748455     693.69157603
  700    1970.41650700     693.33982685
  701    1977.20097372     648.30991719
  702    1871.22095221     668.83097507
  703    1869.99591345     696.75535071
  704    1939.75328073     503.61526924
  705    1894.46886139     427.43219353
  706    1913.45813374     402.88756425
  707    1925.61428301     401.05988938
  708    1934.13576094     449.95010248
  709    1952.84825868     384.98796580
  710    1943.85955230     393.29327247
  711    1980.76530318     384.56159196
  712    1999.96035115     416.00000000
  713    1974.10916181     431.82771730
  714    1875.01985406     568.69376522
  715    1868.94851990     542.79087124
  716    1826.60783862     501.89002332
  717    1791.17609075     489.51255805
  718    1830.52014603     471.56159793
  719    1811.48727452     455.92388796
  720    1763.70773182     472.00086154
  721    1784.65723979     491.85836616
  722    1735.51737065     494.37648233
  723    1742.31877587     515.17669697
  724    1778.56823539     512.12129995
  725    1766.88057882     519.55409198
  726    1698.67419672     608.00839608
  727    1723.25113326     600.31821992
  728    1730.67570015     604.21482889
  729    1719.65751290     649.29146804
  730    1739.89442185     638.02932122
  731    1644.08186897     618.33618862
  732    1649.68061992     597.45491238
  733    1606.17071689     611.93526889
  734    1604.64848966     577.56261498
  735    1608.91723036     573.21181031
  736    1686.40916496     594.41594579
  737    1651.89758578     595.47029021
  738    1656.59964516     562.34994054
  739    1826.53278821     581.83959789
  740    1825.07995073     623.82161617
  741    1837.61718728     607.21680818
  742    1870.70853625     611.69286652
  743    1872.31587104     613.33368346
  744    1984.24316458     272.00000000
  745    1974.42287119     301.26769748