# File generated by Flopy version 3.10.0.dev2 on 05/09/2025 at 15:27:47.
BEGIN options
  SAVE_FLOWS
END options

BEGIN packages
  DISV6  ex-gwe-prt-gwf.disv  disv
  WEL6  ex-gwe-prt-gwf.wel  wel
  NPF6  ex-gwe-prt-gwf.npf  npf
  STO6  ex-gwe-prt-gwf.sto  sto
  IC6  ex-gwe-prt-gwf.ic  ic
  OC6  ex-gwe-prt-gwf.oc  oc
  CHD6  ex-gwe-prt-gwf.chd  chd
END packages

