# File generated by Flopy version 3.10.0.dev2 on 05/09/2025 at 15:27:46.
BEGIN options
END options

BEGIN dimensions
  MAXBOUND  1880
END dimensions

BEGIN period  1
  1 3060 4.00000000E-03
  1 3180 4.00000000E-03
  1 3186 4.00000000E-03
  1 3195 4.00000000E-03
  1 3196 4.00000000E-03
  1 3198 4.00000000E-03
  1 3207 4.00000000E-03
  1 3226 4.00000000E-03
  1 3234 4.00000000E-03
  1 3235 4.00000000E-03
  1 3236 4.00000000E-03
  1 3237 4.00000000E-03
  1 3238 4.00000000E-03
  1 3239 4.00000000E-03
  1 3240 4.00000000E-03
  1 3241 4.00000000E-03
  1 3242 4.00000000E-03
  1 3243 4.00000000E-03
  1 3244 4.00000000E-03
  1 3245 4.00000000E-03
  1 3246 4.00000000E-03
  1 3247 4.00000000E-03
  1 3248 4.00000000E-03
  1 3249 4.00000000E-03
  1 3250 4.00000000E-03
  1 3251 4.00000000E-03
  1 3252 4.00000000E-03
  1 3253 4.00000000E-03
  1 3254 4.00000000E-03
  1 3255 4.00000000E-03
  1 3256 4.00000000E-03
  1 3258 4.00000000E-03
  1 3271 4.00000000E-03
  1 3277 4.00000000E-03
  1 3278 4.00000000E-03
  1 3279 4.00000000E-03
  1 3280 4.00000000E-03
  1 3281 4.00000000E-03
  1 3282 4.00000000E-03
  1 3283 4.00000000E-03
  1 3284 4.00000000E-03
  1 3285 4.00000000E-03
  1 3286 4.00000000E-03
  1 3287 4.00000000E-03
  1 3288 4.00000000E-03
  1 3289 4.00000000E-03
  1 3290 4.00000000E-03
  1 3291 4.00000000E-03
  1 3292 4.00000000E-03
  1 3293 4.00000000E-03
  1 3294 4.00000000E-03
  1 3295 4.00000000E-03
  1 3296 4.00000000E-03
  1 3297 4.00000000E-03
  1 3298 4.00000000E-03
  1 3299 4.00000000E-03
  1 3300 4.00000000E-03
  1 3301 4.00000000E-03
  1 3302 4.00000000E-03
  1 3303 4.00000000E-03
  1 3304 4.00000000E-03
  1 3305 4.00000000E-03
  1 3306 4.00000000E-03
  1 3307 4.00000000E-03
  1 3308 4.00000000E-03
  1 3309 4.00000000E-03
  1 3310 4.00000000E-03
  1 3311 4.00000000E-03
  1 3312 4.00000000E-03
  1 3313 4.00000000E-03
  1 3314 4.00000000E-03
  1 3315 4.00000000E-03
  1 3316 4.00000000E-03
  1 3317 4.00000000E-03
  1 3318 4.00000000E-03
  1 3319 4.00000000E-03
  1 3320 4.00000000E-03
  1 3321 4.00000000E-03
  1 3323 4.00000000E-03
  1 3346 4.00000000E-03
  1 3347 4.00000000E-03
  1 3348 4.00000000E-03
  1 3349 4.00000000E-03
  1 3350 4.00000000E-03
  1 3351 4.00000000E-03
  1 3352 4.00000000E-03
  1 3353 4.00000000E-03
  1 3354 4.00000000E-03
  1 3355 4.00000000E-03
  1 3356 4.00000000E-03
  1 3357 4.00000000E-03
  1 3358 4.00000000E-03
  1 3359 4.00000000E-03
  1 3360 4.00000000E-03
  1 3361 4.00000000E-03
  1 3362 4.00000000E-03
  1 3363 4.00000000E-03
  1 3364 4.00000000E-03
  1 3365 4.00000000E-03
  1 3366 4.00000000E-03
  1 3367 4.00000000E-03
  1 3368 4.00000000E-03
  1 3369 4.00000000E-03
  1 3370 4.00000000E-03
  1 3371 4.00000000E-03
  1 3374 4.00000000E-03
  1 3375 4.00000000E-03
  1 3377 4.00000000E-03
  1 3385 4.00000000E-03
  1 3386 4.00000000E-03
  1 3387 4.00000000E-03
  1 3388 4.00000000E-03
  1 3389 4.00000000E-03
  1 3390 4.00000000E-03
  1 3391 4.00000000E-03
  1 3392 4.00000000E-03
  1 3393 4.00000000E-03
  1 3394 4.00000000E-03
  1 3395 4.00000000E-03
  1 3396 4.00000000E-03
  1 3397 4.00000000E-03
  1 3398 4.00000000E-03
  1 3400 4.00000000E-03
  1 3422 4.00000000E-03
  1 3428 4.00000000E-03
  1 3429 4.00000000E-03
  1 3430 4.00000000E-03
  1 3431 4.00000000E-03
  1 3432 4.00000000E-03
  1 3433 4.00000000E-03
  1 3434 4.00000000E-03
  1 3435 4.00000000E-03
  1 3436 4.00000000E-03
  1 3437 4.00000000E-03
  1 3438 4.00000000E-03
  1 3439 4.00000000E-03
  1 3440 4.00000000E-03
  1 3441 4.00000000E-03
  1 3442 4.00000000E-03
  1 3443 4.00000000E-03
  1 3444 4.00000000E-03
  1 3445 4.00000000E-03
  1 3446 4.00000000E-03
  1 3447 4.00000000E-03
  1 3448 4.00000000E-03
  1 3449 4.00000000E-03
  1 3450 4.00000000E-03
  1 3451 4.00000000E-03
  1 3452 4.00000000E-03
  1 3453 4.00000000E-03
  1 3454 4.00000000E-03
  1 3455 4.00000000E-03
  1 3456 4.00000000E-03
  1 3457 4.00000000E-03
  1 3458 4.00000000E-03
  1 3459 4.00000000E-03
  1 3461 4.00000000E-03
  1 3469 4.00000000E-03
  1 3470 4.00000000E-03
  1 3471 4.00000000E-03
  1 3472 4.00000000E-03
  1 3473 4.00000000E-03
  1 3474 4.00000000E-03
  1 3475 4.00000000E-03
  1 3476 4.00000000E-03
  1 3477 4.00000000E-03
  1 3478 4.00000000E-03
  1 3479 4.00000000E-03
  1 3480 4.00000000E-03
  1 3481 4.00000000E-03
  1 3482 4.00000000E-03
  1 3483 4.00000000E-03
  1 3484 4.00000000E-03
  1 3485 4.00000000E-03
  1 3486 4.00000000E-03
  1 3487 4.00000000E-03
  1 3488 4.00000000E-03
  1 3489 4.00000000E-03
  1 3490 4.00000000E-03
  1 3491 4.00000000E-03
  1 3492 4.00000000E-03
  1 3493 4.00000000E-03
  1 3494 4.00000000E-03
  1 3495 4.00000000E-03
  1 3496 4.00000000E-03
  1 3497 4.00000000E-03
  1 3498 4.00000000E-03
  1 3499 4.00000000E-03
  1 3500 4.00000000E-03
  1 3501 4.00000000E-03
  1 3502 4.00000000E-03
  1 3503 4.00000000E-03
  1 3504 4.00000000E-03
  1 3505 4.00000000E-03
  1 3506 4.00000000E-03
  1 3507 4.00000000E-03
  1 3508 4.00000000E-03
  1 3509 4.00000000E-03
  1 3510 4.00000000E-03
  1 3511 4.00000000E-03
  1 3512 4.00000000E-03
  1 3513 4.00000000E-03
  1 3514 4.00000000E-03
  1 3515 4.00000000E-03
  1 3516 4.00000000E-03
  1 3517 4.00000000E-03
  1 3518 4.00000000E-03
  1 3519 4.00000000E-03
  1 3520 4.00000000E-03
  1 3521 4.00000000E-03
  1 3522 4.00000000E-03
  1 3523 4.00000000E-03
  1 3524 4.00000000E-03
  1 3525 4.00000000E-03
  1 3526 4.00000000E-03
  1 3527 4.00000000E-03
  1 3528 4.00000000E-03
  1 3529 4.00000000E-03
  1 3530 4.00000000E-03
  1 3531 4.00000000E-03
  1 3532 4.00000000E-03
  1 3533 4.00000000E-03
  1 3534 4.00000000E-03
  1 3535 4.00000000E-03
  1 3536 4.00000000E-03
  1 3537 4.00000000E-03
  1 3538 4.00000000E-03
  1 3539 4.00000000E-03
  1 3540 4.00000000E-03
  1 3541 4.00000000E-03
  1 3542 4.00000000E-03
  1 3543 4.00000000E-03
  1 3544 4.00000000E-03
  1 3545 4.00000000E-03
  1 3546 4.00000000E-03
  1 3547 4.00000000E-03
  1 3548 4.00000000E-03
  1 3549 4.00000000E-03
  1 3550 4.00000000E-03
  1 3551 4.00000000E-03
  1 3552 4.00000000E-03
  1 3553 4.00000000E-03
  1 3554 4.00000000E-03
  1 3555 4.00000000E-03
  1 3556 4.00000000E-03
  1 3557 4.00000000E-03
  1 3558 4.00000000E-03
  1 3559 4.00000000E-03
  1 3560 4.00000000E-03
  1 3561 4.00000000E-03
  1 3562 4.00000000E-03
  1 3563 4.00000000E-03
  1 3564 4.00000000E-03
  1 3565 4.00000000E-03
  1 3566 4.00000000E-03
  1 3567 4.00000000E-03
  1 3568 4.00000000E-03
  1 3569 4.00000000E-03
  1 3570 4.00000000E-03
  1 3571 4.00000000E-03
  1 3572 4.00000000E-03
  1 3573 4.00000000E-03
  1 3574 4.00000000E-03
  1 3575 4.00000000E-03
  1 3576 4.00000000E-03
  1 3577 4.00000000E-03
  1 3578 4.00000000E-03
  1 3579 4.00000000E-03
  1 3580 4.00000000E-03
  1 3581 4.00000000E-03
  1 3582 4.00000000E-03
  1 3583 4.00000000E-03
  1 3584 4.00000000E-03
  1 3585 4.00000000E-03
  1 3586 4.00000000E-03
  1 3587 4.00000000E-03
  1 3588 4.00000000E-03
  1 3589 4.00000000E-03
  1 3590 4.00000000E-03
  1 3591 4.00000000E-03
  1 3592 4.00000000E-03
  1 3593 4.00000000E-03
  1 3594 4.00000000E-03
  1 3595 4.00000000E-03
  1 3596 4.00000000E-03
  1 3597 4.00000000E-03
  1 3598 4.00000000E-03
  1 3599 4.00000000E-03
  1 3600 4.00000000E-03
  1 3601 4.00000000E-03
  1 3602 4.00000000E-03
  1 3603 4.00000000E-03
  1 3604 4.00000000E-03
  1 3605 4.00000000E-03
  1 3606 4.00000000E-03
  1 3607 4.00000000E-03
  1 3608 4.00000000E-03
  1 3609 4.00000000E-03
  1 3610 4.00000000E-03
  1 3611 4.00000000E-03
  1 3612 4.00000000E-03
  1 3613 4.00000000E-03
  1 3614 4.00000000E-03
  1 3615 4.00000000E-03
  1 3616 4.00000000E-03
  1 3617 4.00000000E-03
  1 3618 4.00000000E-03
  1 3619 4.00000000E-03
  1 3620 4.00000000E-03
  1 3621 4.00000000E-03
  1 3622 4.00000000E-03
  1 3623 4.00000000E-03
  1 3624 4.00000000E-03
  1 3625 4.00000000E-03
  1 3626 4.00000000E-03
  1 3627 4.00000000E-03
  1 3628 4.00000000E-03
  1 3629 4.00000000E-03
  1 3630 4.00000000E-03
  1 3631 4.00000000E-03
  1 3632 4.00000000E-03
  1 3633 4.00000000E-03
  1 3634 4.00000000E-03
  1 3635 4.00000000E-03
  1 3636 4.00000000E-03
  1 3637 4.00000000E-03
  1 3638 4.00000000E-03
  1 3639 4.00000000E-03
  1 3640 4.00000000E-03
  1 3641 4.00000000E-03
  1 3642 4.00000000E-03
  1 3643 4.00000000E-03
  1 3644 4.00000000E-03
  1 3645 4.00000000E-03
  1 3646 4.00000000E-03
  1 3647 4.00000000E-03
  1 3648 4.00000000E-03
  1 3649 4.00000000E-03
  1 3650 4.00000000E-03
  1 3651 4.00000000E-03
  1 3652 4.00000000E-03
  1 3653 4.00000000E-03
  1 3654 4.00000000E-03
  1 3655 4.00000000E-03
  1 3656 4.00000000E-03
  1 3657 4.00000000E-03
  1 3658 4.00000000E-03
  1 3659 4.00000000E-03
  1 3660 4.00000000E-03
  1 3661 4.00000000E-03
  1 3662 4.00000000E-03
  1 3663 4.00000000E-03
  1 3664 4.00000000E-03
  1 3665 4.00000000E-03
  1 3666 4.00000000E-03
  1 3667 4.00000000E-03
  1 3668 4.00000000E-03
  1 3669 4.00000000E-03
  1 3670 4.00000000E-03
  1 3671 4.00000000E-03
  1 3672 4.00000000E-03
  1 3673 4.00000000E-03
  1 3674 4.00000000E-03
  1 3675 4.00000000E-03
  1 3676 4.00000000E-03
  1 3677 4.00000000E-03
  1 3678 4.00000000E-03
  1 3679 4.00000000E-03
  1 3680 4.00000000E-03
  1 3681 4.00000000E-03
  1 3682 4.00000000E-03
  1 3683 4.00000000E-03
  1 3684 4.00000000E-03
  1 3685 4.00000000E-03
  1 3686 4.00000000E-03
  1 3687 4.00000000E-03
  1 3688 4.00000000E-03
  1 3689 4.00000000E-03
  1 3690 4.00000000E-03
  1 3691 4.00000000E-03
  1 3692 4.00000000E-03
  1 3693 4.00000000E-03
  1 3694 4.00000000E-03
  1 3695 4.00000000E-03
  1 3696 4.00000000E-03
  1 3697 4.00000000E-03
  1 3698 4.00000000E-03
  1 3699 4.00000000E-03
  1 3700 4.00000000E-03
  1 3701 4.00000000E-03
  1 3702 4.00000000E-03
  1 3703 4.00000000E-03
  1 3704 4.00000000E-03
  1 3705 4.00000000E-03
  1 3706 4.00000000E-03
  1 3707 4.00000000E-03
  1 3708 4.00000000E-03
  1 3709 4.00000000E-03
  1 3710 4.00000000E-03
  1 3711 4.00000000E-03
  1 3712 4.00000000E-03
  1 3713 4.00000000E-03
  1 3714 4.00000000E-03
  1 3715 4.00000000E-03
  1 3716 4.00000000E-03
  1 3717 4.00000000E-03
  1 3718 4.00000000E-03
  1 3719 4.00000000E-03
  1 3720 4.00000000E-03
  1 3721 4.00000000E-03
  1 3722 4.00000000E-03
  1 3723 4.00000000E-03
  1 3724 4.00000000E-03
  1 3725 4.00000000E-03
  1 3726 4.00000000E-03
  1 3727 4.00000000E-03
  1 3728 4.00000000E-03
  1 3729 4.00000000E-03
  1 3730 4.00000000E-03
  1 3731 4.00000000E-03
  1 3732 4.00000000E-03
  1 3733 4.00000000E-03
  1 3734 4.00000000E-03
  1 3735 4.00000000E-03
  1 3736 4.00000000E-03
  1 3737 4.00000000E-03
  1 3738 4.00000000E-03
  1 3739 4.00000000E-03
  1 3740 4.00000000E-03
  1 3741 4.00000000E-03
  1 3742 4.00000000E-03
  1 3743 4.00000000E-03
  1 3744 4.00000000E-03
  1 3745 4.00000000E-03
  1 3746 4.00000000E-03
  1 3747 4.00000000E-03
  1 3748 4.00000000E-03
  1 3749 4.00000000E-03
  1 3750 4.00000000E-03
  1 3751 4.00000000E-03
  1 3752 4.00000000E-03
  1 3753 4.00000000E-03
  1 3754 4.00000000E-03
  1 3755 4.00000000E-03
  1 3756 4.00000000E-03
  1 3757 4.00000000E-03
  1 3758 4.00000000E-03
  1 3759 4.00000000E-03
  1 3760 4.00000000E-03
  1 3761 4.00000000E-03
  1 3762 4.00000000E-03
  1 3763 4.00000000E-03
  1 3764 4.00000000E-03
  1 3765 4.00000000E-03
  1 3766 4.00000000E-03
  1 3767 4.00000000E-03
  1 3768 4.00000000E-03
  1 3769 4.00000000E-03
  1 3770 4.00000000E-03
  1 3771 4.00000000E-03
  1 3772 4.00000000E-03
  1 3773 4.00000000E-03
  1 3775 4.00000000E-03
  1 3806 4.00000000E-03
  1 3807 4.00000000E-03
  1 3808 4.00000000E-03
  1 3809 4.00000000E-03
  1 3810 4.00000000E-03
  1 3811 4.00000000E-03
  1 3812 4.00000000E-03
  1 3813 4.00000000E-03
  1 3814 4.00000000E-03
  1 3815 4.00000000E-03
  1 3816 4.00000000E-03
  1 3817 4.00000000E-03
  1 3818 4.00000000E-03
  1 3819 4.00000000E-03
  1 3820 4.00000000E-03
  1 3821 4.00000000E-03
  1 3822 4.00000000E-03
  1 3823 4.00000000E-03
  1 3824 4.00000000E-03
  1 3825 4.00000000E-03
  1 3826 4.00000000E-03
  1 3827 4.00000000E-03
  1 3828 4.00000000E-03
  1 3829 4.00000000E-03
  1 3830 4.00000000E-03
  1 3831 4.00000000E-03
  1 3832 4.00000000E-03
  1 3833 4.00000000E-03
  1 3834 4.00000000E-03
  1 3835 4.00000000E-03
  1 3836 4.00000000E-03
  1 3837 4.00000000E-03
  1 3838 4.00000000E-03
  1 3839 4.00000000E-03
  1 3840 4.00000000E-03
  1 3841 4.00000000E-03
  1 3842 4.00000000E-03
  1 3843 4.00000000E-03
  1 3844 4.00000000E-03
  1 3846 4.00000000E-03
  1 3857 4.00000000E-03
  1 3865 4.00000000E-03
  1 3866 4.00000000E-03
  1 3867 4.00000000E-03
  1 3868 4.00000000E-03
  1 3869 4.00000000E-03
  1 3870 4.00000000E-03
  1 3871 4.00000000E-03
  1 3872 4.00000000E-03
  1 3873 4.00000000E-03
  1 3874 4.00000000E-03
  1 3875 4.00000000E-03
  1 3876 4.00000000E-03
  1 3877 4.00000000E-03
  1 3878 4.00000000E-03
  1 3879 4.00000000E-03
  1 3880 4.00000000E-03
  1 3881 4.00000000E-03
  1 3882 4.00000000E-03
  1 3883 4.00000000E-03
  1 3884 4.00000000E-03
  1 3885 4.00000000E-03
  1 3886 4.00000000E-03
  1 3887 4.00000000E-03
  1 3888 4.00000000E-03
  1 3889 4.00000000E-03
  1 3890 4.00000000E-03
  1 3891 4.00000000E-03
  1 3892 4.00000000E-03
  1 3893 4.00000000E-03
  1 3894 4.00000000E-03
  1 3895 4.00000000E-03
  1 3896 4.00000000E-03
  1 3897 4.00000000E-03
  1 3898 4.00000000E-03
  1 3899 4.00000000E-03
  1 3900 4.00000000E-03
  1 3901 4.00000000E-03
  1 3902 4.00000000E-03
  1 3903 4.00000000E-03
  1 3904 4.00000000E-03
  1 3905 4.00000000E-03
  1 3906 4.00000000E-03
  1 3907 4.00000000E-03
  1 3908 4.00000000E-03
  1 3909 4.00000000E-03
  1 3910 4.00000000E-03
  1 3911 4.00000000E-03
  1 3912 4.00000000E-03
  1 3913 4.00000000E-03
  1 3914 4.00000000E-03
  1 3915 4.00000000E-03
  1 3916 4.00000000E-03
  1 3917 4.00000000E-03
  1 3918 4.00000000E-03
  1 3919 4.00000000E-03
  1 3920 4.00000000E-03
  1 3921 4.00000000E-03
  1 3922 4.00000000E-03
  1 3923 4.00000000E-03
  1 3924 4.00000000E-03
  1 3925 4.00000000E-03
  1 3926 4.00000000E-03
  1 3927 4.00000000E-03
  1 3928 4.00000000E-03
  1 3929 4.00000000E-03
  1 3930 4.00000000E-03
  1 3931 4.00000000E-03
  1 3932 4.00000000E-03
  1 3933 4.00000000E-03
  1 3934 4.00000000E-03
  1 3935 4.00000000E-03
  1 3936 4.00000000E-03
  1 3937 4.00000000E-03
  1 3938 4.00000000E-03
  1 3939 4.00000000E-03
  1 3940 4.00000000E-03
  1 3941 4.00000000E-03
  1 3942 4.00000000E-03
  1 3943 4.00000000E-03
  1 3944 4.00000000E-03
  1 3945 4.00000000E-03
  1 3946 4.00000000E-03
  1 3947 4.00000000E-03
  1 3948 4.00000000E-03
  1 3949 4.00000000E-03
  1 3950 4.00000000E-03
  1 3951 4.00000000E-03
  1 3952 4.00000000E-03
  1 3953 4.00000000E-03
  1 3954 4.00000000E-03
  1 3955 4.00000000E-03
  1 3956 4.00000000E-03
  1 3957 4.00000000E-03
  1 3958 4.00000000E-03
  1 3959 4.00000000E-03
  1 3960 4.00000000E-03
  1 3961 4.00000000E-03
  1 3962 4.00000000E-03
  1 3963 4.00000000E-03
  1 3964 4.00000000E-03
  1 3965 4.00000000E-03
  1 3966 4.00000000E-03
  1 3967 4.00000000E-03
  1 3968 4.00000000E-03
  1 3969 4.00000000E-03
  1 3970 4.00000000E-03
  1 3971 4.00000000E-03
  1 3972 4.00000000E-03
  1 3973 4.00000000E-03
  1 3974 4.00000000E-03
  1 3975 4.00000000E-03
  1 3976 4.00000000E-03
  1 3977 4.00000000E-03
  1 3978 4.00000000E-03
  1 3979 4.00000000E-03
  1 3980 4.00000000E-03
  1 3981 4.00000000E-03
  1 3982 4.00000000E-03
  1 3983 4.00000000E-03
  1 3984 4.00000000E-03
  1 3985 4.00000000E-03
  1 3986 4.00000000E-03
  1 3987 4.00000000E-03
  1 3988 4.00000000E-03
  1 3989 4.00000000E-03
  1 3990 4.00000000E-03
  1 3991 4.00000000E-03
  1 3992 4.00000000E-03
  1 3993 4.00000000E-03
  1 3994 4.00000000E-03
  1 3995 4.00000000E-03
  1 3996 4.00000000E-03
  1 3997 4.00000000E-03
  1 3998 4.00000000E-03
  1 3999 4.00000000E-03
  1 4000 4.00000000E-03
  1 4001 4.00000000E-03
  1 4002 4.00000000E-03
  1 4003 4.00000000E-03
  1 4004 4.00000000E-03
  1 4005 4.00000000E-03
  1 4006 4.00000000E-03
  1 4007 4.00000000E-03
  1 4008 4.00000000E-03
  1 4009 4.00000000E-03
  1 4010 4.00000000E-03
  1 4011 4.00000000E-03
  1 4012 4.00000000E-03
  1 4013 4.00000000E-03
  1 4014 4.00000000E-03
  1 4015 4.00000000E-03
  1 4016 4.00000000E-03
  1 4017 4.00000000E-03
  1 4018 4.00000000E-03
  1 4019 4.00000000E-03
  1 4020 4.00000000E-03
  1 4021 4.00000000E-03
  1 4022 4.00000000E-03
  1 4023 4.00000000E-03
  1 4024 4.00000000E-03
  1 4025 4.00000000E-03
  1 4026 4.00000000E-03
  1 4027 4.00000000E-03
  1 4028 4.00000000E-03
  1 4029 4.00000000E-03
  1 4030 4.00000000E-03
  1 4031 4.00000000E-03
  1 4032 4.00000000E-03
  1 4033 4.00000000E-03
  1 4034 4.00000000E-03
  1 4035 4.00000000E-03
  1 4036 4.00000000E-03
  1 4037 4.00000000E-03
  1 4038 4.00000000E-03
  1 4039 4.00000000E-03
  1 4040 4.00000000E-03
  1 4041 4.00000000E-03
  1 4042 4.00000000E-03
  1 4043 4.00000000E-03
  1 4044 4.00000000E-03
  1 4045 4.00000000E-03
  1 4046 4.00000000E-03
  1 4047 4.00000000E-03
  1 4048 4.00000000E-03
  1 4049 4.00000000E-03
  1 4050 4.00000000E-03
  1 4051 4.00000000E-03
  1 4052 4.00000000E-03
  1 4053 4.00000000E-03
  1 4054 4.00000000E-03
  1 4055 4.00000000E-03
  1 4056 4.00000000E-03
  1 4057 4.00000000E-03
  1 4058 4.00000000E-03
  1 4059 4.00000000E-03
  1 4060 4.00000000E-03
  1 4061 4.00000000E-03
  1 4062 4.00000000E-03
  1 4063 4.00000000E-03
  1 4064 4.00000000E-03
  1 4065 4.00000000E-03
  1 4066 4.00000000E-03
  1 4067 4.00000000E-03
  1 4068 4.00000000E-03
  1 4069 4.00000000E-03
  1 4070 4.00000000E-03
  1 4071 4.00000000E-03
  1 4072 4.00000000E-03
  1 4073 4.00000000E-03
  1 4074 4.00000000E-03
  1 4075 4.00000000E-03
  1 4076 4.00000000E-03
  1 4077 4.00000000E-03
  1 4078 4.00000000E-03
  1 4079 4.00000000E-03
  1 4080 4.00000000E-03
  1 4081 4.00000000E-03
  1 4082 4.00000000E-03
  1 4083 4.00000000E-03
  1 4084 4.00000000E-03
  1 4085 4.00000000E-03
  1 4086 4.00000000E-03
  1 4087 4.00000000E-03
  1 4088 4.00000000E-03
  1 4089 4.00000000E-03
  1 4090 4.00000000E-03
  1 4091 4.00000000E-03
  1 4092 4.00000000E-03
  1 4093 4.00000000E-03
  1 4094 4.00000000E-03
  1 4095 4.00000000E-03
  1 4096 4.00000000E-03
  1 4097 4.00000000E-03
  1 4098 4.00000000E-03
  1 4099 4.00000000E-03
  1 4100 4.00000000E-03
  1 4101 4.00000000E-03
  1 4102 4.00000000E-03
  1 4103 4.00000000E-03
  1 4104 4.00000000E-03
  1 4105 4.00000000E-03
  1 4106 4.00000000E-03
  1 4107 4.00000000E-03
  1 4108 4.00000000E-03
  1 4109 4.00000000E-03
  1 4110 4.00000000E-03
  1 4111 4.00000000E-03
  1 4112 4.00000000E-03
  1 4113 4.00000000E-03
  1 4114 4.00000000E-03
  1 4115 4.00000000E-03
  1 4116 4.00000000E-03
  1 4117 4.00000000E-03
  1 4118 4.00000000E-03
  1 4119 4.00000000E-03
  1 4120 4.00000000E-03
  1 4121 4.00000000E-03
  1 4122 4.00000000E-03
  1 4123 4.00000000E-03
  1 4124 4.00000000E-03
  1 4125 4.00000000E-03
  1 4126 4.00000000E-03
  1 4127 4.00000000E-03
  1 4128 4.00000000E-03
  1 4129 4.00000000E-03
  1 4130 4.00000000E-03
  1 4131 4.00000000E-03
  1 4132 4.00000000E-03
  1 4133 4.00000000E-03
  1 4134 4.00000000E-03
  1 4135 4.00000000E-03
  1 4136 4.00000000E-03
  1 4137 4.00000000E-03
  1 4138 4.00000000E-03
  1 4139 4.00000000E-03
  1 4140 4.00000000E-03
  1 4141 4.00000000E-03
  1 4142 4.00000000E-03
  1 4143 4.00000000E-03
  1 4144 4.00000000E-03
  1 4145 4.00000000E-03
  1 4146 4.00000000E-03
  1 4147 4.00000000E-03
  1 4148 4.00000000E-03
  1 4149 4.00000000E-03
  1 4150 4.00000000E-03
  1 4151 4.00000000E-03
  1 4152 4.00000000E-03
  1 4153 4.00000000E-03
  1 4154 4.00000000E-03
  1 4155 4.00000000E-03
  1 4156 4.00000000E-03
  1 4157 4.00000000E-03
  1 4158 4.00000000E-03
  1 4159 4.00000000E-03
  1 4160 4.00000000E-03
  1 4161 4.00000000E-03
  1 4162 4.00000000E-03
  1 4163 4.00000000E-03
  1 4164 4.00000000E-03
  1 4165 4.00000000E-03
  1 4166 4.00000000E-03
  1 4167 4.00000000E-03
  1 4168 4.00000000E-03
  1 4169 4.00000000E-03
  1 4170 4.00000000E-03
  1 4171 4.00000000E-03
  1 4172 4.00000000E-03
  1 4173 4.00000000E-03
  1 4174 4.00000000E-03
  1 4175 4.00000000E-03
  1 4176 4.00000000E-03
  1 4177 4.00000000E-03
  1 4178 4.00000000E-03
  1 4179 4.00000000E-03
  1 4180 4.00000000E-03
  1 4181 4.00000000E-03
  1 4182 4.00000000E-03
  1 4183 4.00000000E-03
  1 4184 4.00000000E-03
  1 4185 4.00000000E-03
  1 4186 4.00000000E-03
  1 4187 4.00000000E-03
  1 4188 4.00000000E-03
  1 4189 4.00000000E-03
  1 4190 4.00000000E-03
  1 4191 4.00000000E-03
  1 4192 4.00000000E-03
  1 4193 4.00000000E-03
  1 4194 4.00000000E-03
  1 4195 4.00000000E-03
  1 4196 4.00000000E-03
  1 4197 4.00000000E-03
  1 4198 4.00000000E-03
  1 4199 4.00000000E-03
  1 4200 4.00000000E-03
  1 4201 4.00000000E-03
  1 4202 4.00000000E-03
  1 4203 4.00000000E-03
  1 4204 4.00000000E-03
  1 4205 4.00000000E-03
  1 4206 4.00000000E-03
  1 4207 4.00000000E-03
  1 4208 4.00000000E-03
  1 4209 4.00000000E-03
  1 4210 4.00000000E-03
  1 4211 4.00000000E-03
  1 4212 4.00000000E-03
  1 4213 4.00000000E-03
  1 4214 4.00000000E-03
  1 4215 4.00000000E-03
  1 4216 4.00000000E-03
  1 4217 4.00000000E-03
  1 4218 4.00000000E-03
  1 4219 4.00000000E-03
  1 4220 4.00000000E-03
  1 4221 4.00000000E-03
  1 4222 4.00000000E-03
  1 4223 4.00000000E-03
  1 4224 4.00000000E-03
  1 4225 4.00000000E-03
  1 4226 4.00000000E-03
  1 4227 4.00000000E-03
  1 4228 4.00000000E-03
  1 4229 4.00000000E-03
  1 4230 4.00000000E-03
  1 4231 4.00000000E-03
  1 4232 4.00000000E-03
  1 4233 4.00000000E-03
  1 4234 4.00000000E-03
  1 4235 4.00000000E-03
  1 4236 4.00000000E-03
  1 4237 4.00000000E-03
  1 4238 4.00000000E-03
  1 4239 4.00000000E-03
  1 4240 4.00000000E-03
  1 4241 4.00000000E-03
  1 4242 4.00000000E-03
  1 4243 4.00000000E-03
  1 4244 4.00000000E-03
  1 4245 4.00000000E-03
  1 4246 4.00000000E-03
  1 4247 4.00000000E-03
  1 4248 4.00000000E-03
  1 4249 4.00000000E-03
  1 4250 4.00000000E-03
  1 4251 4.00000000E-03
  1 4252 4.00000000E-03
  1 4253 4.00000000E-03
  1 4254 4.00000000E-03
  1 4255 4.00000000E-03
  1 4256 4.00000000E-03
  1 4257 4.00000000E-03
  1 4258 4.00000000E-03
  1 4259 4.00000000E-03
  1 4260 4.00000000E-03
  1 4261 4.00000000E-03
  1 4262 4.00000000E-03
  1 4263 4.00000000E-03
  1 4264 4.00000000E-03
  1 4265 4.00000000E-03
  1 4266 4.00000000E-03
  1 4267 4.00000000E-03
  1 4268 4.00000000E-03
  1 4269 4.00000000E-03
  1 4270 4.00000000E-03
  1 4271 4.00000000E-03
  1 4272 4.00000000E-03
  1 4273 4.00000000E-03
  1 4274 4.00000000E-03
  1 4275 4.00000000E-03
  1 4276 4.00000000E-03
  1 4277 4.00000000E-03
  1 4278 4.00000000E-03
  1 4279 4.00000000E-03
  1 4280 4.00000000E-03
  1 4281 4.00000000E-03
  1 4282 4.00000000E-03
  1 4283 4.00000000E-03
  1 4284 4.00000000E-03
  1 4285 4.00000000E-03
  1 4286 4.00000000E-03
  1 4287 4.00000000E-03
  1 4288 4.00000000E-03
  1 4289 4.00000000E-03
  1 4290 4.00000000E-03
  1 4291 4.00000000E-03
  1 4292 4.00000000E-03
  1 4293 4.00000000E-03
  1 4294 4.00000000E-03
  1 4295 4.00000000E-03
  1 4296 4.00000000E-03
  1 4297 4.00000000E-03
  1 4298 4.00000000E-03
  1 4299 4.00000000E-03
  1 4300 4.00000000E-03
  1 4301 4.00000000E-03
  1 4302 4.00000000E-03
  1 4303 4.00000000E-03
  1 4304 4.00000000E-03
  1 4305 4.00000000E-03
  1 4306 4.00000000E-03
  1 4307 4.00000000E-03
  1 4308 4.00000000E-03
  1 4309 4.00000000E-03
  1 4310 4.00000000E-03
  1 4311 4.00000000E-03
  1 4312 4.00000000E-03
  1 4313 4.00000000E-03
  1 4314 4.00000000E-03
  1 4315 4.00000000E-03
  1 4316 4.00000000E-03
  1 4317 4.00000000E-03
  1 4318 4.00000000E-03
  1 4319 4.00000000E-03
  1 4320 4.00000000E-03
  1 4321 4.00000000E-03
  1 4322 4.00000000E-03
  1 4323 4.00000000E-03
  1 4324 4.00000000E-03
  1 4325 4.00000000E-03
  1 4326 4.00000000E-03
  1 4327 4.00000000E-03
  1 4328 4.00000000E-03
  1 4329 4.00000000E-03
  1 4330 4.00000000E-03
  1 4331 4.00000000E-03
  1 4332 4.00000000E-03
  1 4333 4.00000000E-03
  1 4334 4.00000000E-03
  1 4335 4.00000000E-03
  1 4336 4.00000000E-03
  1 4337 4.00000000E-03
  1 4338 4.00000000E-03
  1 4339 4.00000000E-03
  1 4340 4.00000000E-03
  1 4341 4.00000000E-03
  1 4342 4.00000000E-03
  1 4343 4.00000000E-03
  1 4344 4.00000000E-03
  1 4345 4.00000000E-03
  1 4346 4.00000000E-03
  1 4347 4.00000000E-03
  1 4348 4.00000000E-03
  1 4349 4.00000000E-03
  1 4350 4.00000000E-03
  1 4351 4.00000000E-03
  1 4352 4.00000000E-03
  1 4353 4.00000000E-03
  1 4354 4.00000000E-03
  1 4355 4.00000000E-03
  1 4356 4.00000000E-03
  1 4357 4.00000000E-03
  1 4358 4.00000000E-03
  1 4359 4.00000000E-03
  1 4360 4.00000000E-03
  1 4361 4.00000000E-03
  1 4362 4.00000000E-03
  1 4363 4.00000000E-03
  1 4364 4.00000000E-03
  1 4365 4.00000000E-03
  1 4366 4.00000000E-03
  1 4367 4.00000000E-03
  1 4368 4.00000000E-03
  1 4369 4.00000000E-03
  1 4370 4.00000000E-03
  1 4371 4.00000000E-03
  1 4372 4.00000000E-03
  1 4373 4.00000000E-03
  1 4374 4.00000000E-03
  1 4375 4.00000000E-03
  1 4376 4.00000000E-03
  1 4377 4.00000000E-03
  1 4378 4.00000000E-03
  1 4379 4.00000000E-03
  1 4380 4.00000000E-03
  1 4381 4.00000000E-03
  1 4382 4.00000000E-03
  1 4383 4.00000000E-03
  1 4384 4.00000000E-03
  1 4385 4.00000000E-03
  1 4386 4.00000000E-03
  1 4387 4.00000000E-03
  1 4388 4.00000000E-03
  1 4389 4.00000000E-03
  1 4390 4.00000000E-03
  1 4391 4.00000000E-03
  1 4392 4.00000000E-03
  1 4393 4.00000000E-03
  1 4394 4.00000000E-03
  1 4395 4.00000000E-03
  1 4396 4.00000000E-03
  1 4397 4.00000000E-03
  1 4398 4.00000000E-03
  1 4399 4.00000000E-03
  1 4400 4.00000000E-03
  1 4401 4.00000000E-03
  1 4402 4.00000000E-03
  1 4403 4.00000000E-03
  1 4404 4.00000000E-03
  1 4405 4.00000000E-03
  1 4406 4.00000000E-03
  1 4407 4.00000000E-03
  1 4408 4.00000000E-03
  1 4409 4.00000000E-03
  1 4410 4.00000000E-03
  1 4411 4.00000000E-03
  1 4412 4.00000000E-03
  1 4413 4.00000000E-03
  1 4414 4.00000000E-03
  1 4415 4.00000000E-03
  1 4416 4.00000000E-03
  1 4417 4.00000000E-03
  1 4418 4.00000000E-03
  1 4419 4.00000000E-03
  1 4420 4.00000000E-03
  1 4421 4.00000000E-03
  1 4422 4.00000000E-03
  1 4423 4.00000000E-03
  1 4424 4.00000000E-03
  1 4425 4.00000000E-03
  1 4426 4.00000000E-03
  1 4427 4.00000000E-03
  1 4428 4.00000000E-03
  1 4429 4.00000000E-03
  1 4430 4.00000000E-03
  1 4431 4.00000000E-03
  1 4432 4.00000000E-03
  1 4433 4.00000000E-03
  1 4434 4.00000000E-03
  1 4435 4.00000000E-03
  1 4436 4.00000000E-03
  1 4437 4.00000000E-03
  1 4438 4.00000000E-03
  1 4439 4.00000000E-03
  1 4440 4.00000000E-03
  1 4441 4.00000000E-03
  1 4442 4.00000000E-03
  1 4443 4.00000000E-03
  1 4444 4.00000000E-03
  1 4445 4.00000000E-03
  1 4446 4.00000000E-03
  1 4447 4.00000000E-03
  1 4448 4.00000000E-03
  1 4449 4.00000000E-03
  1 4450 4.00000000E-03
  1 4451 4.00000000E-03
  1 4452 4.00000000E-03
  1 4453 4.00000000E-03
  1 4454 4.00000000E-03
  1 4455 4.00000000E-03
  1 4456 4.00000000E-03
  1 4457 4.00000000E-03
  1 4458 4.00000000E-03
  1 4459 4.00000000E-03
  1 4460 4.00000000E-03
  1 4461 4.00000000E-03
  1 4462 4.00000000E-03
  1 4463 4.00000000E-03
  1 4464 4.00000000E-03
  1 4465 4.00000000E-03
  1 4466 4.00000000E-03
  1 4467 4.00000000E-03
  1 4468 4.00000000E-03
  1 4469 4.00000000E-03
  1 4470 4.00000000E-03
  1 4471 4.00000000E-03
  1 4472 4.00000000E-03
  1 4473 4.00000000E-03
  1 4474 4.00000000E-03
  1 4475 4.00000000E-03
  1 4476 4.00000000E-03
  1 4477 4.00000000E-03
  1 4478 4.00000000E-03
  1 4479 4.00000000E-03
  1 4480 4.00000000E-03
  1 4481 4.00000000E-03
  1 4482 4.00000000E-03
  1 4483 4.00000000E-03
  1 4484 4.00000000E-03
  1 4485 4.00000000E-03
  1 4486 4.00000000E-03
  1 4487 4.00000000E-03
  1 4488 4.00000000E-03
  1 4489 4.00000000E-03
  1 4490 4.00000000E-03
  1 4491 4.00000000E-03
  1 4492 4.00000000E-03
  1 4493 4.00000000E-03
  1 4494 4.00000000E-03
  1 4495 4.00000000E-03
  1 4496 4.00000000E-03
  1 4497 4.00000000E-03
  1 4498 4.00000000E-03
  1 4499 4.00000000E-03
  1 4500 4.00000000E-03
  1 4501 4.00000000E-03
  1 4502 4.00000000E-03
  1 4503 4.00000000E-03
  1 4504 4.00000000E-03
  1 4505 4.00000000E-03
  1 4506 4.00000000E-03
  1 4507 4.00000000E-03
  1 4508 4.00000000E-03
  1 4509 4.00000000E-03
  1 4510 4.00000000E-03
  1 4511 4.00000000E-03
  1 4512 4.00000000E-03
  1 4513 4.00000000E-03
  1 4514 4.00000000E-03
  1 4515 4.00000000E-03
  1 4516 4.00000000E-03
  1 4517 4.00000000E-03
  1 4518 4.00000000E-03
  1 4519 4.00000000E-03
  1 4520 4.00000000E-03
  1 4521 4.00000000E-03
  1 4522 4.00000000E-03
  1 4523 4.00000000E-03
  1 4524 4.00000000E-03
  1 4525 4.00000000E-03
  1 4526 4.00000000E-03
  1 4527 4.00000000E-03
  1 4528 4.00000000E-03
  1 4529 4.00000000E-03
  1 4530 4.00000000E-03
  1 4531 4.00000000E-03
  1 4532 4.00000000E-03
  1 4533 4.00000000E-03
  1 4534 4.00000000E-03
  1 4535 4.00000000E-03
  1 4536 4.00000000E-03
  1 4537 4.00000000E-03
  1 4538 4.00000000E-03
  1 4539 4.00000000E-03
  1 4540 4.00000000E-03
  1 4541 4.00000000E-03
  1 4542 4.00000000E-03
  1 4543 4.00000000E-03
  1 4544 4.00000000E-03
  1 4545 4.00000000E-03
  1 4546 4.00000000E-03
  1 4547 4.00000000E-03
  1 4548 4.00000000E-03
  1 4549 4.00000000E-03
  1 4550 4.00000000E-03
  1 4551 4.00000000E-03
  1 4552 4.00000000E-03
  1 4553 4.00000000E-03
  1 4554 4.00000000E-03
  1 4555 4.00000000E-03
  1 4556 4.00000000E-03
  1 4557 4.00000000E-03
  1 4558 4.00000000E-03
  1 4559 4.00000000E-03
  1 4560 4.00000000E-03
  1 4561 4.00000000E-03
  1 4562 4.00000000E-03
  1 4563 4.00000000E-03
  1 4564 4.00000000E-03
  1 4565 4.00000000E-03
  1 4566 4.00000000E-03
  1 4567 4.00000000E-03
  1 4568 4.00000000E-03
  1 4569 4.00000000E-03
  1 4570 4.00000000E-03
  1 4571 4.00000000E-03
  1 4572 4.00000000E-03
  1 4573 4.00000000E-03
  1 4574 4.00000000E-03
  1 4575 4.00000000E-03
  1 4576 4.00000000E-03
  1 4577 4.00000000E-03
  1 4578 4.00000000E-03
  1 4579 4.00000000E-03
  1 4580 4.00000000E-03
  1 4581 4.00000000E-03
  1 4582 4.00000000E-03
  1 4583 4.00000000E-03
  1 4584 4.00000000E-03
  1 4585 4.00000000E-03
  1 4586 4.00000000E-03
  1 4587 4.00000000E-03
  1 4588 4.00000000E-03
  1 4589 4.00000000E-03
  1 4590 4.00000000E-03
  1 4591 4.00000000E-03
  1 4592 4.00000000E-03
  1 4593 4.00000000E-03
  1 4594 4.00000000E-03
  1 4595 4.00000000E-03
  1 4596 4.00000000E-03
  1 4597 4.00000000E-03
  1 4598 4.00000000E-03
  1 4599 4.00000000E-03
  1 4600 4.00000000E-03
  1 4601 4.00000000E-03
  1 4602 4.00000000E-03
  1 4603 4.00000000E-03