# File generated by Flopy version 3.10.0.dev2 on 05/09/2025 at 15:27:46.
BEGIN options
  SAVE_FLOWS
END options

BEGIN packages
  DISV6  ex-gwf-disvmesh.disv  disv
  NPF6  ex-gwf-disvmesh.npf  npf
  IC6  ex-gwf-disvmesh.ic  ic
  GHB6  ex-gwf-disvmesh.ghb  ghb
  RCH6  ex-gwf-disvmesh.rch  rch
  OC6  ex-gwf-disvmesh.oc  oc
END packages

