# File generated by Flopy version 3.10.0.dev2 on 05/09/2025 at 15:27:46.
BEGIN options
END options

BEGIN dimensions
  MAXBOUND  3360
END dimensions

BEGIN period  1
  1 1 0.00000000E+00 1.64607540E+01
  1 2 0.00000000E+00 1.65510366E+01
  1 3 0.00000000E+00 1.46774080E+01
  1 4 0.00000000E+00 2.67370196E+01
  1 5 0.00000000E+00 1.46729942E+01
  1 6 0.00000000E+00 3.24354568E+01
  1 7 0.00000000E+00 1.59783801E+01
  1 8 0.00000000E+00 1.60420645E+01
  1 9 0.00000000E+00 1.73449893E+01
  1 10 0.00000000E+00 2.76762652E+01
  1 11 0.00000000E+00 1.74222289E+01
  1 12 0.00000000E+00 1.65458000E+01
  1 13 0.00000000E+00 3.45920323E+01
  1 14 0.00000000E+00 1.65793132E+01
  1 15 0.00000000E+00 1.61092006E+01
  1 16 0.00000000E+00 3.28060683E+01
  1 17 0.00000000E+00 1.61133298E+01
  1 18 0.00000000E+00 1.57804345E+01
  1 19 0.00000000E+00 3.16061939E+01
  1 20 0.00000000E+00 1.57658570E+01
  1 21 0.00000000E+00 1.56548255E+01
  1 22 0.00000000E+00 3.07506993E+01
  1 23 0.00000000E+00 1.56311063E+01
  1 24 0.00000000E+00 1.56191849E+01
  1 25 0.00000000E+00 3.03708818E+01
  1 26 0.00000000E+00 1.55914215E+01
  1 27 0.00000000E+00 1.56161151E+01
  1 28 0.00000000E+00 3.02154622E+01
  1 29 0.00000000E+00 1.55870061E+01
  1 30 0.00000000E+00 1.56160197E+01
  1 31 0.00000000E+00 3.01589442E+01
  1 32 0.00000000E+00 1.55867940E+01
  1 33 0.00000000E+00 1.56252562E+01
  1 34 0.00000000E+00 3.01676136E+01
  1 35 0.00000000E+00 1.55959009E+01
  1 36 0.00000000E+00 1.56419153E+01
  1 37 0.00000000E+00 3.02039538E+01
  1 38 0.00000000E+00 1.56121321E+01
  1 39 0.00000000E+00 1.56406014E+01
  1 40 0.00000000E+00 3.02105816E+01
  1 41 0.00000000E+00 1.56105798E+01
  1 42 0.00000000E+00 1.56182774E+01
  1 43 0.00000000E+00 3.01883215E+01
  1 44 0.00000000E+00 1.55880270E+01
  1 45 0.00000000E+00 1.56072921E+01
  1 46 0.00000000E+00 3.01605658E+01
  1 47 0.00000000E+00 1.55767682E+01
  1 48 0.00000000E+00 1.56094538E+01
  1 49 0.00000000E+00 3.01350912E+01
  1 50 0.00000000E+00 1.55790069E+01
  1 51 0.00000000E+00 1.56104988E+01
  1 52 0.00000000E+00 3.01238262E+01
  1 53 0.00000000E+00 1.55804468E+01
  1 54 0.00000000E+00 1.56145062E+01
  1 55 0.00000000E+00 3.01338949E+01
  1 56 0.00000000E+00 1.55847747E+01
  1 57 0.00000000E+00 1.56194855E+01
  1 58 0.00000000E+00 3.01399470E+01
  1 59 0.00000000E+00 1.55900568E+01
  1 60 0.00000000E+00 1.56212621E+01
  1 61 0.00000000E+00 3.01397688E+01
  1 62 0.00000000E+00 1.55924296E+01
  1 63 0.00000000E+00 1.56310808E+01
  1 64 0.00000000E+00 3.01686396E+01
  1 65 0.00000000E+00 1.56023107E+01
  1 66 0.00000000E+00 1.56478962E+01
  1 67 0.00000000E+00 3.02121646E+01
  1 68 0.00000000E+00 1.56188508E+01
  1 69 0.00000000E+00 1.56467208E+01
  1 70 0.00000000E+00 3.02215159E+01
  1 71 0.00000000E+00 1.56174075E+01
  1 72 0.00000000E+00 1.56244412E+01
  1 73 0.00000000E+00 3.02000823E+01
  1 74 0.00000000E+00 1.55949286E+01
  1 75 0.00000000E+00 1.56134942E+01
  1 76 0.00000000E+00 3.01727666E+01
  1 77 0.00000000E+00 1.55836809E+01
  1 78 0.00000000E+00 1.56157071E+01
  1 79 0.00000000E+00 3.01475378E+01
  1 80 0.00000000E+00 1.55859714E+01
  1 81 0.00000000E+00 1.56170528E+01
  1 82 0.00000000E+00 3.01368701E+01
  1 83 0.00000000E+00 1.55877184E+01
  1 84 0.00000000E+00 1.56267172E+01
  1 85 0.00000000E+00 3.01619506E+01
  1 86 0.00000000E+00 1.55974601E+01
  1 87 0.00000000E+00 1.56435033E+01
  1 88 0.00000000E+00 3.02041359E+01
  1 89 0.00000000E+00 1.56138776E+01
  1 90 0.00000000E+00 1.56422549E+01
  1 91 0.00000000E+00 3.02128885E+01
  1 92 0.00000000E+00 1.56124027E+01
  1 93 0.00000000E+00 1.56199740E+01
  1 94 0.00000000E+00 3.01912462E+01
  1 95 0.00000000E+00 1.55899376E+01
  1 96 0.00000000E+00 1.56089792E+01
  1 97 0.00000000E+00 3.01639152E+01
  1 98 0.00000000E+00 1.55786727E+01
  1 99 0.00000000E+00 1.56112497E+01
  1 100 0.00000000E+00 3.01386273E+01
  1 101 0.00000000E+00 1.55809907E+01
  1 102 0.00000000E+00 1.56125574E+01
  1 103 0.00000000E+00 3.01279941E+01
  1 104 0.00000000E+00 1.55827143E+01
  1 105 0.00000000E+00 1.56222758E+01
  1 106 0.00000000E+00 3.01530354E+01
  1 107 0.00000000E+00 1.55924731E+01
  1 108 0.00000000E+00 1.56390469E+01
  1 109 0.00000000E+00 3.01952338E+01
  1 110 0.00000000E+00 1.56088869E+01
  1 111 0.00000000E+00 1.56377675E+01
  1 112 0.00000000E+00 3.02039622E+01
  1 113 0.00000000E+00 1.56074005E+01
  1 114 0.00000000E+00 1.56154591E+01
  1 115 0.00000000E+00 3.01823523E+01
  1 116 0.00000000E+00 1.55848899E+01
  1 117 0.00000000E+00 1.56044954E+01
  1 118 0.00000000E+00 3.01548468E+01
  1 119 0.00000000E+00 1.55736308E+01
  1 120 0.00000000E+00 1.56066763E+01
  1 121 0.00000000E+00 3.01294547E+01
  1 122 0.00000000E+00 1.55758903E+01
  1 123 0.00000000E+00 1.56077151E+01
  1 124 0.00000000E+00 3.01182619E+01
  1 125 0.00000000E+00 1.55773548E+01
  1 126 0.00000000E+00 1.56117257E+01
  1 127 0.00000000E+00 3.01282910E+01
  1 128 0.00000000E+00 1.55816313E+01
  1 129 0.00000000E+00 1.56166640E+01
  1 130 0.00000000E+00 3.01344006E+01
  1 131 0.00000000E+00 1.55869677E+01
  1 132 0.00000000E+00 1.56185292E+01
  1 133 0.00000000E+00 3.01342553E+01
  1 134 0.00000000E+00 1.55893453E+01
  1 135 0.00000000E+00 1.56282990E+01
  1 136 0.00000000E+00 3.01630765E+01
  1 137 0.00000000E+00 1.55992375E+01
  1 138 0.00000000E+00 1.56451522E+01
  1 139 0.00000000E+00 3.02066754E+01
  1 140 0.00000000E+00 1.56157265E+01
  1 141 0.00000000E+00 1.56439499E+01
  1 142 0.00000000E+00 3.02158845E+01
  1 143 0.00000000E+00 1.56142901E+01
  1 144 0.00000000E+00 1.56216494E+01
  1 145 0.00000000E+00 3.01945542E+01
  1 146 0.00000000E+00 1.55917629E+01
  1 147 0.00000000E+00 1.56107170E+01
  1 148 0.00000000E+00 3.01671599E+01
  1 149 0.00000000E+00 1.55805347E+01
  1 150 0.00000000E+00 1.56128827E+01
  1 151 0.00000000E+00 3.01419852E+01
  1 152 0.00000000E+00 1.55828618E+01
  1 153 0.00000000E+00 1.56142561E+01
  1 154 0.00000000E+00 3.01312714E+01
  1 155 0.00000000E+00 1.55846229E+01
  1 156 0.00000000E+00 1.56239273E+01
  1 157 0.00000000E+00 3.01564230E+01
  1 158 0.00000000E+00 1.55943395E+01
  1 159 0.00000000E+00 1.56407690E+01
  1 160 0.00000000E+00 3.01985829E+01
  1 161 0.00000000E+00 1.56107224E+01
  1 162 0.00000000E+00 1.56394995E+01
  1 163 0.00000000E+00 3.02073391E+01
  1 164 0.00000000E+00 1.56093142E+01
  1 165 0.00000000E+00 1.56171089E+01
  1 166 0.00000000E+00 3.01856954E+01
  1 167 0.00000000E+00 1.55867903E+01
  1 168 0.00000000E+00 1.56062137E+01
  1 169 0.00000000E+00 3.01582430E+01
  1 170 0.00000000E+00 1.55755023E+01
  1 171 0.00000000E+00 1.56083859E+01
  1 172 0.00000000E+00 3.01328206E+01
  1 173 0.00000000E+00 1.55777567E+01
  1 174 0.00000000E+00 1.56093769E+01
  1 175 0.00000000E+00 3.01216598E+01
  1 176 0.00000000E+00 1.55791530E+01
  1 177 0.00000000E+00 1.56137024E+01
  1 178 0.00000000E+00 3.01315923E+01
  1 179 0.00000000E+00 1.55833132E+01
  1 180 0.00000000E+00 1.56185061E+01
  1 181 0.00000000E+00 3.01375806E+01
  1 182 0.00000000E+00 1.55888705E+01
  1 183 0.00000000E+00 1.56202153E+01
  1 184 0.00000000E+00 3.01377052E+01
  1 185 0.00000000E+00 1.55910318E+01
  1 186 0.00000000E+00 1.56296788E+01
  1 187 0.00000000E+00 3.01661784E+01
  1 188 0.00000000E+00 1.56010144E+01
  1 189 0.00000000E+00 1.56469040E+01
  1 190 0.00000000E+00 3.02097286E+01
  1 191 0.00000000E+00 1.56178040E+01
  1 192 0.00000000E+00 1.56456105E+01
  1 193 0.00000000E+00 3.02195708E+01
  1 194 0.00000000E+00 1.56163597E+01
  1 195 0.00000000E+00 1.56234632E+01
  1 196 0.00000000E+00 3.01982434E+01
  1 197 0.00000000E+00 1.55935964E+01
  1 198 0.00000000E+00 1.56124517E+01
  1 199 0.00000000E+00 3.01704497E+01
  1 200 0.00000000E+00 1.55822914E+01
  1 201 0.00000000E+00 1.56148079E+01
  1 202 0.00000000E+00 3.01450309E+01
  1 203 0.00000000E+00 1.55848130E+01
  1 204 0.00000000E+00 1.56158181E+01
  1 205 0.00000000E+00 3.01348128E+01
  1 206 0.00000000E+00 1.55863839E+01
  1 207 0.00000000E+00 1.56254436E+01
  1 208 0.00000000E+00 3.01595536E+01
  1 209 0.00000000E+00 1.55960193E+01
  1 210 0.00000000E+00 1.56427981E+01
  1 211 0.00000000E+00 3.02015662E+01
  1 212 0.00000000E+00 1.56128043E+01
  1 213 0.00000000E+00 1.56411139E+01
  1 214 0.00000000E+00 3.02109339E+01
  1 215 0.00000000E+00 1.56111563E+01
  1 216 0.00000000E+00 1.56191027E+01
  1 217 0.00000000E+00 3.01889690E+01
  1 218 0.00000000E+00 1.55886836E+01
  1 219 0.00000000E+00 1.56079386E+01
  1 220 0.00000000E+00 3.01615102E+01
  1 221 0.00000000E+00 1.55774761E+01
  1 222 0.00000000E+00 1.56097378E+01
  1 223 0.00000000E+00 3.01364862E+01
  1 224 0.00000000E+00 1.55795646E+01
  1 225 0.00000000E+00 1.56113822E+01
  1 226 0.00000000E+00 3.01257078E+01
  1 227 0.00000000E+00 1.55813312E+01
  1 228 0.00000000E+00 1.56210310E+01
  1 229 0.00000000E+00 3.01502681E+01
  1 230 0.00000000E+00 1.55911236E+01
  1 231 0.00000000E+00 1.56379260E+01
  1 232 0.00000000E+00 3.01926125E+01
  1 233 0.00000000E+00 1.56075567E+01
  1 234 0.00000000E+00 1.56312133E+01
  1 235 0.00000000E+00 3.01869059E+01
  1 236 0.00000000E+00 1.56009389E+01
  1 237 0.00000000E+00 1.55943151E+01
  1 238 0.00000000E+00 3.01394622E+01
  1 239 0.00000000E+00 1.55642924E+01
  1 240 0.00000000E+00 1.55688674E+01
  1 241 0.00000000E+00 3.00939365E+01
  1 242 0.00000000E+00 1.55387860E+01
  1 243 0.00000000E+00 1.55757193E+01
  1 244 0.00000000E+00 3.00799776E+01
  1 245 0.00000000E+00 1.55454303E+01
  1 246 0.00000000E+00 1.55996923E+01
  1 247 0.00000000E+00 3.00972779E+01
  1 248 0.00000000E+00 1.55694698E+01
  1 249 0.00000000E+00 1.56189811E+01
  1 250 0.00000000E+00 3.01259532E+01
  1 251 0.00000000E+00 1.55889943E+01
  1 252 0.00000000E+00 1.56223390E+01
  1 253 0.00000000E+00 3.01460749E+01
  1 254 0.00000000E+00 1.55927904E+01
  1 255 0.00000000E+00 1.56184495E+01
  1 256 0.00000000E+00 3.01460789E+01
  1 257 0.00000000E+00 1.55891514E+01
  1 258 0.00000000E+00 1.56274577E+01
  1 259 0.00000000E+00 3.01650428E+01
  1 260 0.00000000E+00 1.55982709E+01
  1 261 0.00000000E+00 1.56441381E+01
  1 262 0.00000000E+00 3.02056200E+01
  1 263 0.00000000E+00 1.56147903E+01
  1 264 0.00000000E+00 1.56427931E+01
  1 265 0.00000000E+00 3.02140396E+01
  1 266 0.00000000E+00 1.56130605E+01
  1 267 0.00000000E+00 1.56207121E+01
  1 268 0.00000000E+00 3.01927105E+01
  1 269 0.00000000E+00 1.55909073E+01
  1 270 0.00000000E+00 1.56095320E+01
  1 271 0.00000000E+00 3.01649670E+01
  1 272 0.00000000E+00 1.55793203E+01
  1 273 0.00000000E+00 1.56118377E+01
  1 274 0.00000000E+00 3.01397720E+01
  1 275 0.00000000E+00 1.55816238E+01
  1 276 0.00000000E+00 1.56132002E+01
  1 277 0.00000000E+00 3.01292456E+01
  1 278 0.00000000E+00 1.55835891E+01
  1 279 0.00000000E+00 1.56226141E+01
  1 280 0.00000000E+00 3.01538511E+01
  1 281 0.00000000E+00 1.55931396E+01
  1 282 0.00000000E+00 1.56393703E+01
  1 283 0.00000000E+00 3.01960074E+01
  1 284 0.00000000E+00 1.56095214E+01
  1 285 0.00000000E+00 1.56383449E+01
  1 286 0.00000000E+00 3.02050109E+01
  1 287 0.00000000E+00 1.56078764E+01
  1 288 0.00000000E+00 1.56161903E+01
  1 289 0.00000000E+00 3.01838421E+01
  1 290 0.00000000E+00 1.55856144E+01
  1 291 0.00000000E+00 1.56050667E+01
  1 292 0.00000000E+00 3.01559815E+01
  1 293 0.00000000E+00 1.55741399E+01
  1 294 0.00000000E+00 1.56074066E+01
  1 295 0.00000000E+00 3.01308400E+01
  1 296 0.00000000E+00 1.55767542E+01
  1 297 0.00000000E+00 1.56082935E+01
  1 298 0.00000000E+00 3.01193174E+01
  1 299 0.00000000E+00 1.55781280E+01
  1 300 0.00000000E+00 1.56120709E+01
  1 301 0.00000000E+00 3.01294408E+01
  1 302 0.00000000E+00 1.55825930E+01
  1 303 0.00000000E+00 1.56171357E+01
  1 304 0.00000000E+00 3.01355223E+01
  1 305 0.00000000E+00 1.55874491E+01
  1 306 0.00000000E+00 1.56190822E+01
  1 307 0.00000000E+00 3.01351228E+01
  1 308 0.00000000E+00 1.55899258E+01
  1 309 0.00000000E+00 1.56290943E+01
  1 310 0.00000000E+00 3.01641617E+01
  1 311 0.00000000E+00 1.55999421E+01
  1 312 0.00000000E+00 1.56458331E+01
  1 313 0.00000000E+00 3.02079026E+01
  1 314 0.00000000E+00 1.56162711E+01
  1 315 0.00000000E+00 1.56443321E+01
  1 316 0.00000000E+00 3.02169427E+01
  1 317 0.00000000E+00 1.56150225E+01
  1 318 0.00000000E+00 1.56222347E+01
  1 319 0.00000000E+00 3.01958057E+01
  1 320 0.00000000E+00 1.55924002E+01
  1 321 0.00000000E+00 1.56113230E+01
  1 322 0.00000000E+00 3.01681853E+01
  1 323 0.00000000E+00 1.55814164E+01
  1 324 0.00000000E+00 1.56133766E+01
  1 325 0.00000000E+00 3.01435363E+01
  1 326 0.00000000E+00 1.55835944E+01
  1 327 0.00000000E+00 1.56150015E+01
  1 328 0.00000000E+00 3.01326182E+01
  1 329 0.00000000E+00 1.55852503E+01
  1 330 0.00000000E+00 1.56247019E+01
  1 331 0.00000000E+00 3.01575739E+01
  1 332 0.00000000E+00 1.55950240E+01
  1 333 0.00000000E+00 1.56415301E+01
  1 334 0.00000000E+00 3.01996370E+01
  1 335 0.00000000E+00 1.56114817E+01
  1 336 0.00000000E+00 1.56401407E+01
  1 337 0.00000000E+00 3.02083634E+01
  1 338 0.00000000E+00 1.56100215E+01
  1 339 0.00000000E+00 1.56178383E+01
  1 340 0.00000000E+00 3.01870293E+01
  1 341 0.00000000E+00 1.55875220E+01
  1 342 0.00000000E+00 1.56066973E+01
  1 343 0.00000000E+00 3.01595283E+01
  1 344 0.00000000E+00 1.55760987E+01
  1 345 0.00000000E+00 1.56091292E+01
  1 346 0.00000000E+00 3.01340166E+01
  1 347 0.00000000E+00 1.55785643E+01
  1 348 0.00000000E+00 1.56101132E+01
  1 349 0.00000000E+00 3.01228016E+01
  1 350 0.00000000E+00 1.55799854E+01
  1 351 0.00000000E+00 1.56138761E+01
  1 352 0.00000000E+00 3.01331337E+01
  1 353 0.00000000E+00 1.55841763E+01
  1 354 0.00000000E+00 1.56187292E+01
  1 355 0.00000000E+00 3.01387273E+01
  1 356 0.00000000E+00 1.55892714E+01
  1 357 0.00000000E+00 1.56207578E+01
  1 358 0.00000000E+00 3.01382589E+01
  1 359 0.00000000E+00 1.55918307E+01
  1 360 0.00000000E+00 1.56305142E+01
  1 361 0.00000000E+00 3.01675042E+01
  1 362 0.00000000E+00 1.56017051E+01
  1 363 0.00000000E+00 1.56473892E+01
  1 364 0.00000000E+00 3.02110941E+01
  1 365 0.00000000E+00 1.56182448E+01
  1 366 0.00000000E+00 1.56462529E+01
  1 367 0.00000000E+00 3.02202211E+01
  1 368 0.00000000E+00 1.56168961E+01
  1 369 0.00000000E+00 1.56240067E+01
  1 370 0.00000000E+00 3.01992360E+01
  1 371 0.00000000E+00 1.55944850E+01
  1 372 0.00000000E+00 1.56128613E+01
  1 373 0.00000000E+00 3.01717119E+01
  1 374 0.00000000E+00 1.55829908E+01
  1 375 0.00000000E+00 1.56151940E+01
  1 376 0.00000000E+00 3.01461911E+01
  1 377 0.00000000E+00 1.55855035E+01
  1 378 0.00000000E+00 1.56165841E+01
  1 379 0.00000000E+00 3.01360191E+01
  1 380 0.00000000E+00 1.55872031E+01
  1 381 0.00000000E+00 1.56263381E+01
  1 382 0.00000000E+00 3.01611792E+01
  1 383 0.00000000E+00 1.55970028E+01
  1 384 0.00000000E+00 1.56429457E+01
  1 385 0.00000000E+00 3.02030945E+01
  1 386 0.00000000E+00 1.56133587E+01
  1 387 0.00000000E+00 1.56415943E+01
  1 388 0.00000000E+00 3.02114631E+01
  1 389 0.00000000E+00 1.56117376E+01
  1 390 0.00000000E+00 1.56193201E+01
  1 391 0.00000000E+00 3.01901820E+01
  1 392 0.00000000E+00 1.55889502E+01
  1 393 0.00000000E+00 1.56085861E+01
  1 394 0.00000000E+00 3.01630180E+01
  1 395 0.00000000E+00 1.55781298E+01
  1 396 0.00000000E+00 1.56106985E+01
  1 397 0.00000000E+00 3.01375553E+01
  1 398 0.00000000E+00 1.55802867E+01
  1 399 0.00000000E+00 1.56119490E+01
  1 400 0.00000000E+00 3.01267569E+01
  1 401 0.00000000E+00 1.55820839E+01
  1 402 0.00000000E+00 1.56216201E+01
  1 403 0.00000000E+00 3.01517974E+01
  1 404 0.00000000E+00 1.55918696E+01
  1 405 0.00000000E+00 1.56381859E+01
  1 406 0.00000000E+00 3.01934649E+01
  1 407 0.00000000E+00 1.56077257E+01
  1 408 0.00000000E+00 1.56317087E+01
  1 409 0.00000000E+00 3.01881361E+01
  1 410 0.00000000E+00 1.56013632E+01
  1 411 0.00000000E+00 1.55947865E+01
  1 412 0.00000000E+00 3.01402543E+01
  1 413 0.00000000E+00 1.55646271E+01
  1 414 0.00000000E+00 1.55694138E+01
  1 415 0.00000000E+00 3.00949548E+01
  1 416 0.00000000E+00 1.55393291E+01
  1 417 0.00000000E+00 1.55761271E+01
  1 418 0.00000000E+00 3.00808184E+01
  1 419 0.00000000E+00 1.55457208E+01
  1 420 0.00000000E+00 1.56001620E+01
  1 421 0.00000000E+00 3.00985449E+01
  1 422 0.00000000E+00 1.55696636E+01
  1 423 0.00000000E+00 1.56196790E+01
  1 424 0.00000000E+00 3.01270045E+01
  1 425 0.00000000E+00 1.55897658E+01
  1 426 0.00000000E+00 1.56226896E+01
  1 427 0.00000000E+00 3.01473884E+01
  1 428 0.00000000E+00 1.55932048E+01
  1 429 0.00000000E+00 1.56189462E+01
  1 430 0.00000000E+00 3.01465870E+01
  1 431 0.00000000E+00 1.55898507E+01
  1 432 0.00000000E+00 1.56279095E+01
  1 433 0.00000000E+00 3.01659002E+01
  1 434 0.00000000E+00 1.55987923E+01
  1 435 0.00000000E+00 1.56446303E+01
  1 436 0.00000000E+00 3.02068032E+01
  1 437 0.00000000E+00 1.56151262E+01
  1 438 0.00000000E+00 1.56434037E+01
  1 439 0.00000000E+00 3.02152100E+01
  1 440 0.00000000E+00 1.56136300E+01
  1 441 0.00000000E+00 1.56210852E+01
  1 442 0.00000000E+00 3.01935331E+01
  1 443 0.00000000E+00 1.55911592E+01
  1 444 0.00000000E+00 1.56101630E+01
  1 445 0.00000000E+00 3.01661508E+01
  1 446 0.00000000E+00 1.55799040E+01
  1 447 0.00000000E+00 1.56123708E+01
  1 448 0.00000000E+00 3.01409149E+01
  1 449 0.00000000E+00 1.55822268E+01
  1 450 0.00000000E+00 1.56137816E+01
  1 451 0.00000000E+00 3.01304846E+01
  1 452 0.00000000E+00 1.55841238E+01
  1 453 0.00000000E+00 1.56237944E+01
  1 454 0.00000000E+00 3.01561832E+01
  1 455 0.00000000E+00 1.55941143E+01
  1 456 0.00000000E+00 1.56418613E+01
  1 457 0.00000000E+00 3.02010685E+01
  1 458 0.00000000E+00 1.56117205E+01
  1 459 0.00000000E+00 1.56510589E+01
  1 460 0.00000000E+00 3.02344955E+01
  1 461 0.00000000E+00 1.56203039E+01
  1 462 0.00000000E+00 1.56852668E+01
  1 463 0.00000000E+00 3.03401959E+01
  1 464 0.00000000E+00 1.56522815E+01
  1 465 0.00000000E+00 1.58811996E+01
  1 466 0.00000000E+00 3.07630496E+01
  1 467 0.00000000E+00 1.58407332E+01
  1 468 0.00000000E+00 1.62839319E+01
  1 469 0.00000000E+00 3.16766590E+01
  1 470 0.00000000E+00 1.62267899E+01
  1 471 0.00000000E+00 3.14625831E+01
  1 472 0.00000000E+00 3.35834442E+01
  1 473 0.00000000E+00 3.28596081E+01
  1 474 0.00000000E+00 3.21310847E+01
  1 475 0.00000000E+00 4.05254621E+01
  1 476 0.00000000E+00 3.21178854E+01
  1 477 0.00000000E+00 3.42694467E+01
  1 478 0.00000000E+00 3.13181262E+01
  1 479 0.00000000E+00 3.21862662E+01
  1 480 0.00000000E+00 3.06761109E+01
  1 481 0.00000000E+00 3.07207736E+01
  1 482 0.00000000E+00 3.00550791E+01
  1 483 0.00000000E+00 2.99642626E+01
  1 484 0.00000000E+00 2.97807465E+01
  1 485 0.00000000E+00 2.93774687E+01
  1 486 0.00000000E+00 2.96776708E+01
  1 487 0.00000000E+00 2.90871779E+01
  1 488 0.00000000E+00 2.96616279E+01
  1 489 0.00000000E+00 2.90050014E+01
  1 490 0.00000000E+00 2.96894122E+01
  1 491 0.00000000E+00 2.90094578E+01
  1 492 0.00000000E+00 2.97039639E+01
  1 493 0.00000000E+00 2.90139130E+01
  1 494 0.00000000E+00 2.96892134E+01
  1 495 0.00000000E+00 2.90013991E+01
  1 496 0.00000000E+00 2.96557952E+01
  1 497 0.00000000E+00 2.90014886E+01
  1 498 0.00000000E+00 2.96296071E+01
  1 499 0.00000000E+00 2.89654991E+01
  1 500 0.00000000E+00 2.96206300E+01
  1 501 0.00000000E+00 2.89184970E+01
  1 502 0.00000000E+00 2.96286519E+01
  1 503 0.00000000E+00 2.89228744E+01
  1 504 0.00000000E+00 2.96400024E+01
  1 505 0.00000000E+00 2.89324264E+01
  1 506 0.00000000E+00 2.96412361E+01
  1 507 0.00000000E+00 2.89263987E+01
  1 508 0.00000000E+00 2.96619938E+01
  1 509 0.00000000E+00 2.89545828E+01
  1 510 0.00000000E+00 2.96992035E+01
  1 511 0.00000000E+00 2.90021288E+01
  1 512 0.00000000E+00 2.97167046E+01
  1 513 0.00000000E+00 2.90203433E+01
  1 514 0.00000000E+00 2.97028578E+01
  1 515 0.00000000E+00 2.90123893E+01
  1 516 0.00000000E+00 2.96698051E+01
  1 517 0.00000000E+00 2.90141291E+01
  1 518 0.00000000E+00 2.96439237E+01
  1 519 0.00000000E+00 2.89789971E+01
  1 520 0.00000000E+00 2.96357878E+01
  1 521 0.00000000E+00 2.89337708E+01
  1 522 0.00000000E+00 2.96534981E+01
  1 523 0.00000000E+00 2.89507549E+01
  1 524 0.00000000E+00 2.96896834E+01
  1 525 0.00000000E+00 2.89947056E+01
  1 526 0.00000000E+00 2.97067352E+01
  1 527 0.00000000E+00 2.90115715E+01
  1 528 0.00000000E+00 2.96926902E+01
  1 529 0.00000000E+00 2.90031024E+01
  1 530 0.00000000E+00 2.96596323E+01
  1 531 0.00000000E+00 2.90046112E+01
  1 532 0.00000000E+00 2.96337180E+01
  1 533 0.00000000E+00 2.89694943E+01
  1 534 0.00000000E+00 2.96256532E+01
  1 535 0.00000000E+00 2.89242309E+01
  1 536 0.00000000E+00 2.96432882E+01
  1 537 0.00000000E+00 2.89412716E+01
  1 538 0.00000000E+00 2.96794750E+01
  1 539 0.00000000E+00 2.89851295E+01
  1 540 0.00000000E+00 2.96964642E+01
  1 541 0.00000000E+00 2.90019465E+01
  1 542 0.00000000E+00 2.96824363E+01
  1 543 0.00000000E+00 2.89934205E+01
  1 544 0.00000000E+00 2.96493040E+01
  1 545 0.00000000E+00 2.89948693E+01
  1 546 0.00000000E+00 2.96231573E+01
  1 547 0.00000000E+00 2.89592841E+01
  1 548 0.00000000E+00 2.96142106E+01
  1 549 0.00000000E+00 2.89124365E+01
  1 550 0.00000000E+00 2.96222557E+01
  1 551 0.00000000E+00 2.89168380E+01
  1 552 0.00000000E+00 2.96336275E+01
  1 553 0.00000000E+00 2.89264750E+01
  1 554 0.00000000E+00 2.96348499E+01
  1 555 0.00000000E+00 2.89204450E+01
  1 556 0.00000000E+00 2.96555867E+01
  1 557 0.00000000E+00 2.89485228E+01
  1 558 0.00000000E+00 2.96928797E+01
  1 559 0.00000000E+00 2.89962069E+01
  1 560 0.00000000E+00 2.97102215E+01
  1 561 0.00000000E+00 2.90143198E+01
  1 562 0.00000000E+00 2.96965216E+01
  1 563 0.00000000E+00 2.90063861E+01
  1 564 0.00000000E+00 2.96634090E+01
  1 565 0.00000000E+00 2.90081460E+01
  1 566 0.00000000E+00 2.96375549E+01
  1 567 0.00000000E+00 2.89730078E+01
  1 568 0.00000000E+00 2.96294248E+01
  1 569 0.00000000E+00 2.89278292E+01
  1 570 0.00000000E+00 2.96471274E+01
  1 571 0.00000000E+00 2.89448293E+01
  1 572 0.00000000E+00 2.96833002E+01
  1 573 0.00000000E+00 2.89887268E+01
  1 574 0.00000000E+00 2.97003550E+01
  1 575 0.00000000E+00 2.90055739E+01
  1 576 0.00000000E+00 2.96862754E+01
  1 577 0.00000000E+00 2.89970127E+01
  1 578 0.00000000E+00 2.96531241E+01
  1 579 0.00000000E+00 2.89984185E+01
  1 580 0.00000000E+00 2.96269220E+01
  1 581 0.00000000E+00 2.89628933E+01
  1 582 0.00000000E+00 2.96180594E+01
  1 583 0.00000000E+00 2.89159698E+01
  1 584 0.00000000E+00 2.96261865E+01
  1 585 0.00000000E+00 2.89204218E+01
  1 586 0.00000000E+00 2.96375204E+01
  1 587 0.00000000E+00 2.89301140E+01
  1 588 0.00000000E+00 2.96389536E+01
  1 589 0.00000000E+00 2.89241390E+01
  1 590 0.00000000E+00 2.96592788E+01
  1 591 0.00000000E+00 2.89524098E+01
  1 592 0.00000000E+00 2.96966699E+01
  1 593 0.00000000E+00 2.89995822E+01
  1 594 0.00000000E+00 2.97137302E+01
  1 595 0.00000000E+00 2.90180534E+01
  1 596 0.00000000E+00 2.97001050E+01
  1 597 0.00000000E+00 2.90096122E+01
  1 598 0.00000000E+00 2.96675328E+01
  1 599 0.00000000E+00 2.90114675E+01
  1 600 0.00000000E+00 2.96413287E+01
  1 601 0.00000000E+00 2.89768779E+01
  1 602 0.00000000E+00 2.96332207E+01
  1 603 0.00000000E+00 2.89313560E+01
  1 604 0.00000000E+00 2.96510777E+01
  1 605 0.00000000E+00 2.89483676E+01
  1 606 0.00000000E+00 2.96870827E+01
  1 607 0.00000000E+00 2.89924533E+01
  1 608 0.00000000E+00 2.97042696E+01
  1 609 0.00000000E+00 2.90090971E+01
  1 610 0.00000000E+00 2.96902929E+01
  1 611 0.00000000E+00 2.90007916E+01
  1 612 0.00000000E+00 2.96570528E+01
  1 613 0.00000000E+00 2.90023527E+01
  1 614 0.00000000E+00 2.96314783E+01
  1 615 0.00000000E+00 2.89670834E+01
  1 616 0.00000000E+00 2.96232760E+01
  1 617 0.00000000E+00 2.89221106E+01
  1 618 0.00000000E+00 2.96409641E+01
  1 619 0.00000000E+00 2.89389016E+01
  1 620 0.00000000E+00 2.96762915E+01
  1 621 0.00000000E+00 2.89819143E+01
  1 622 0.00000000E+00 2.96847069E+01
  1 623 0.00000000E+00 2.89884145E+01
  1 624 0.00000000E+00 2.96564477E+01
  1 625 0.00000000E+00 2.89601176E+01
  1 626 0.00000000E+00 2.95925285E+01
  1 627 0.00000000E+00 2.89347254E+01
  1 628 0.00000000E+00 2.95432723E+01
  1 629 0.00000000E+00 2.88958865E+01
  1 630 0.00000000E+00 2.95562418E+01
  1 631 0.00000000E+00 2.88627441E+01
  1 632 0.00000000E+00 2.96087440E+01
  1 633 0.00000000E+00 2.88888678E+01
  1 634 0.00000000E+00 2.96548982E+01
  1 635 0.00000000E+00 2.89329564E+01
  1 636 0.00000000E+00 2.96563337E+01
  1 637 0.00000000E+00 2.89463743E+01
  1 638 0.00000000E+00 2.96579096E+01
  1 639 0.00000000E+00 2.89712141E+01
  1 640 0.00000000E+00 2.96919154E+01
  1 641 0.00000000E+00 2.90006732E+01
  1 642 0.00000000E+00 2.97080027E+01
  1 643 0.00000000E+00 2.90140144E+01
  1 644 0.00000000E+00 2.96936255E+01
  1 645 0.00000000E+00 2.90042907E+01
  1 646 0.00000000E+00 2.96609951E+01
  1 647 0.00000000E+00 2.90059080E+01
  1 648 0.00000000E+00 2.96349000E+01
  1 649 0.00000000E+00 2.89706735E+01
  1 650 0.00000000E+00 2.96267939E+01
  1 651 0.00000000E+00 2.89253913E+01
  1 652 0.00000000E+00 2.96442531E+01
  1 653 0.00000000E+00 2.89421173E+01
  1 654 0.00000000E+00 2.96811332E+01
  1 655 0.00000000E+00 2.89866753E+01
  1 656 0.00000000E+00 2.96980523E+01
  1 657 0.00000000E+00 2.90034428E+01
  1 658 0.00000000E+00 2.96839700E+01
  1 659 0.00000000E+00 2.89948657E+01
  1 660 0.00000000E+00 2.96503487E+01
  1 661 0.00000000E+00 2.89958044E+01
  1 662 0.00000000E+00 2.96244514E+01
  1 663 0.00000000E+00 2.89605318E+01
  1 664 0.00000000E+00 2.96149127E+01
  1 665 0.00000000E+00 2.89131914E+01
  1 666 0.00000000E+00 2.96235930E+01
  1 667 0.00000000E+00 2.89181978E+01
  1 668 0.00000000E+00 2.96353970E+01
  1 669 0.00000000E+00 2.89274777E+01
  1 670 0.00000000E+00 2.96360191E+01
  1 671 0.00000000E+00 2.89219705E+01
  1 672 0.00000000E+00 2.96567558E+01
  1 673 0.00000000E+00 2.89497944E+01
  1 674 0.00000000E+00 2.96943804E+01
  1 675 0.00000000E+00 2.89971771E+01
  1 676 0.00000000E+00 2.97113041E+01
  1 677 0.00000000E+00 2.90158041E+01
  1 678 0.00000000E+00 2.96979841E+01
  1 679 0.00000000E+00 2.90073703E+01
  1 680 0.00000000E+00 2.96646988E+01
  1 681 0.00000000E+00 2.90095061E+01
  1 682 0.00000000E+00 2.96387257E+01
  1 683 0.00000000E+00 2.89742393E+01
  1 684 0.00000000E+00 2.96307499E+01
  1 685 0.00000000E+00 2.89289397E+01
  1 686 0.00000000E+00 2.96482458E+01
  1 687 0.00000000E+00 2.89460542E+01
  1 688 0.00000000E+00 2.96845799E+01
  1 689 0.00000000E+00 2.89897562E+01
  1 690 0.00000000E+00 2.97013051E+01
  1 691 0.00000000E+00 2.90067363E+01
  1 692 0.00000000E+00 2.96874416E+01
  1 693 0.00000000E+00 2.89979843E+01
  1 694 0.00000000E+00 2.96545193E+01
  1 695 0.00000000E+00 2.89995393E+01
  1 696 0.00000000E+00 2.96282023E+01
  1 697 0.00000000E+00 2.89642161E+01
  1 698 0.00000000E+00 2.96190725E+01
  1 699 0.00000000E+00 2.89170320E+01
  1 700 0.00000000E+00 2.96270791E+01
  1 701 0.00000000E+00 2.89214125E+01
  1 702 0.00000000E+00 2.96390226E+01
  1 703 0.00000000E+00 2.89310221E+01
  1 704 0.00000000E+00 2.96404128E+01
  1 705 0.00000000E+00 2.89257305E+01
  1 706 0.00000000E+00 2.96609463E+01
  1 707 0.00000000E+00 2.89537151E+01
  1 708 0.00000000E+00 2.96980761E+01
  1 709 0.00000000E+00 2.90010186E+01
  1 710 0.00000000E+00 2.97156822E+01
  1 711 0.00000000E+00 2.90194866E+01
  1 712 0.00000000E+00 2.97014439E+01
  1 713 0.00000000E+00 2.90111312E+01
  1 714 0.00000000E+00 2.96686777E+01
  1 715 0.00000000E+00 2.90129449E+01
  1 716 0.00000000E+00 2.96424152E+01
  1 717 0.00000000E+00 2.89777521E+01
  1 718 0.00000000E+00 2.96344012E+01
  1 719 0.00000000E+00 2.89324052E+01
  1 720 0.00000000E+00 2.96523616E+01
  1 721 0.00000000E+00 2.89496886E+01
  1 722 0.00000000E+00 2.96881475E+01
  1 723 0.00000000E+00 2.89932484E+01
  1 724 0.00000000E+00 2.97053665E+01
  1 725 0.00000000E+00 2.90103293E+01
  1 726 0.00000000E+00 2.96914397E+01
  1 727 0.00000000E+00 2.90018583E+01
  1 728 0.00000000E+00 2.96584521E+01
  1 729 0.00000000E+00 2.90035708E+01
  1 730 0.00000000E+00 2.96324427E+01
  1 731 0.00000000E+00 2.89682774E+01
  1 732 0.00000000E+00 2.96239276E+01
  1 733 0.00000000E+00 2.89225811E+01
  1 734 0.00000000E+00 2.96419514E+01
  1 735 0.00000000E+00 2.89398462E+01
  1 736 0.00000000E+00 2.96775748E+01
  1 737 0.00000000E+00 2.89828612E+01
  1 738 0.00000000E+00 2.96861290E+01
  1 739 0.00000000E+00 2.89897945E+01
  1 740 0.00000000E+00 2.96581342E+01
  1 741 0.00000000E+00 2.89617589E+01
  1 742 0.00000000E+00 2.95930857E+01
  1 743 0.00000000E+00 2.89355877E+01
  1 744 0.00000000E+00 2.95368430E+01
  1 745 0.00000000E+00 2.88918994E+01
  1 746 0.00000000E+00 2.95428391E+01
  1 747 0.00000000E+00 2.88566499E+01
  1 748 0.00000000E+00 2.95974235E+01
  1 749 0.00000000E+00 2.88817080E+01
  1 750 0.00000000E+00 2.96542607E+01
  1 751 0.00000000E+00 2.89235090E+01
  1 752 0.00000000E+00 2.96573923E+01
  1 753 0.00000000E+00 2.89450541E+01
  1 754 0.00000000E+00 2.96594098E+01
  1 755 0.00000000E+00 2.89718925E+01
  1 756 0.00000000E+00 2.96929855E+01
  1 757 0.00000000E+00 2.90015242E+01
  1 758 0.00000000E+00 2.97094496E+01
  1 759 0.00000000E+00 2.90152057E+01
  1 760 0.00000000E+00 2.96953725E+01
  1 761 0.00000000E+00 2.90059236E+01
  1 762 0.00000000E+00 2.96622219E+01
  1 763 0.00000000E+00 2.90072253E+01
  1 764 0.00000000E+00 2.96364345E+01
  1 765 0.00000000E+00 2.89721743E+01
  1 766 0.00000000E+00 2.96286404E+01
  1 767 0.00000000E+00 2.89274758E+01
  1 768 0.00000000E+00 2.96471932E+01
  1 769 0.00000000E+00 2.89463229E+01
  1 770 0.00000000E+00 2.96868004E+01
  1 771 0.00000000E+00 2.89969028E+01
  1 772 0.00000000E+00 2.97224264E+01
  1 773 0.00000000E+00 2.90443559E+01
  1 774 0.00000000E+00 2.98141651E+01
  1 775 0.00000000E+00 2.91849414E+01
  1 776 0.00000000E+00 3.01355271E+01
  1 777 0.00000000E+00 2.96324166E+01
  1 778 0.00000000E+00 3.09065836E+01
  1 779 0.00000000E+00 3.08817793E+01
  1 780 0.00000000E+00 3.14617620E+01
  1 781 0.00000000E+00 3.21660589E+01
  1 782 0.00000000E+00 2.78989625E+01
  1 783 0.00000000E+00 2.96464850E+01
  1 784 0.00000000E+00 3.33673862E+01
  1 785 0.00000000E+00 3.79030941E+01
  1 786 0.00000000E+00 3.19802197E+01
  1 787 0.00000000E+00 3.67225691E+01