# File generated by Flopy version 3.10.0.dev2 on 05/09/2025 at 15:28:16.
BEGIN options
  auxiliary  CONCENTRATION
END options

BEGIN dimensions
  MAXBOUND  40
END dimensions

BEGIN period  1
  1 1 1 7.12750000E-02 0.00000000E+00
  2 1 1 7.12750000E-02 0.00000000E+00
  3 1 1 7.12750000E-02 0.00000000E+00
  4 1 1 7.12750000E-02 0.00000000E+00
  5 1 1 7.12750000E-02 0.00000000E+00
  6 1 1 7.12750000E-02 0.00000000E+00
  7 1 1 7.12750000E-02 0.00000000E+00
  8 1 1 7.12750000E-02 0.00000000E+00
  9 1 1 7.12750000E-02 0.00000000E+00
  10 1 1 7.12750000E-02 0.00000000E+00
  11 1 1 7.12750000E-02 0.00000000E+00
  12 1 1 7.12750000E-02 0.00000000E+00
  13 1 1 7.12750000E-02 0.00000000E+00
  14 1 1 7.12750000E-02 0.00000000E+00
  15 1 1 7.12750000E-02 0.00000000E+00
  16 1 1 7.12750000E-02 0.00000000E+00
  17 1 1 7.12750000E-02 0.00000000E+00
  18 1 1 7.12750000E-02 0.00000000E+00
  19 1 1 7.12750000E-02 0.00000000E+00
  20 1 1 7.12750000E-02 0.00000000E+00
  21 1 1 7.12750000E-02 0.00000000E+00
  22 1 1 7.12750000E-02 0.00000000E+00
  23 1 1 7.12750000E-02 0.00000000E+00
  24 1 1 7.12750000E-02 0.00000000E+00
  25 1 1 7.12750000E-02 0.00000000E+00
  26 1 1 7.12750000E-02 0.00000000E+00
  27 1 1 7.12750000E-02 0.00000000E+00
  28 1 1 7.12750000E-02 0.00000000E+00
  29 1 1 7.12750000E-02 0.00000000E+00
  30 1 1 7.12750000E-02 0.00000000E+00
  31 1 1 7.12750000E-02 0.00000000E+00
  32 1 1 7.12750000E-02 0.00000000E+00
  33 1 1 7.12750000E-02 0.00000000E+00
  34 1 1 7.12750000E-02 0.00000000E+00
  35 1 1 7.12750000E-02 0.00000000E+00
  36 1 1 7.12750000E-02 0.00000000E+00
  37 1 1 7.12750000E-02 0.00000000E+00
  38 1 1 7.12750000E-02 0.00000000E+00
  39 1 1 7.12750000E-02 0.00000000E+00
  40 1 1 7.12750000E-02 0.00000000E+00
END period  1

