# File generated by Flopy version 3.10.0.dev2 on 05/09/2025 at 15:28:16.
BEGIN options
  SAVE_FLOWS
END options

BEGIN packages
  DIS6  flow.dis  dis
  NPF6  flow.npf  npf
  IC6  flow.ic  ic
  BUY6  flow.buy  buy
  GHB6  flow.ghb  ghb-1
  WEL6  flow.wel  wel-1
  OC6  flow.oc  oc
END packages

