# File generated by Flopy version 3.10.0.dev2 on 05/09/2025 at 15:28:16.
BEGIN options
  XT3D_OFF
END options

BEGIN griddata
  diffc
    CONSTANT       0.57024000
END griddata

