# Name file for MODPATH 7, generated by Flopy version 3.9.3.
MPBAS      modpath_UJW2277.mpbas
GRBDIS     ..\gwfmodel.dis.grb
TDIS       ..\testmodel.tdis
HEAD       ..\gwfmodel.hds
BUDGET     ..\gwfmodel.cbc
