# File generated by Flopy version 3.10.0.dev2 on 05/09/2025 at 15:27:41.
BEGIN options
END options

BEGIN dimensions
  MAXBOUND  8
END dimensions

BEGIN period  1
  1 20 8 1.00000000E+02
  2 20 8 1.00000000E+02
  3 20 8 1.00000000E+02
  4 20 8 1.00000000E+02
  1 20 9 1.00000000E+02
  2 20 9 1.00000000E+02
  3 20 9 1.00000000E+02
  4 20 9 1.00000000E+02
END period  1

