# File generated by Flopy version 3.10.0.dev2 on 05/09/2025 at 15:27:41.
BEGIN options
  TIME_UNITS  days
END options

BEGIN dimensions
  NPER  3
END dimensions

BEGIN perioddata
       0.00000000  1       1.00000000
   21915.00000000  60       1.00000000
   21915.00000000  60       1.00000000
END perioddata

