# File generated by Flopy version 3.10.0.dev2 on 05/09/2025 at 15:27:41.
BEGIN options
  LENGTH_UNITS  meters
END options

BEGIN dimensions
  NLAY  4
  NROW  20
  NCOL  15
END dimensions

BEGIN griddata
  delr
    CONSTANT    2000.00000000
  delc
    CONSTANT    2000.00000000
  top
    CONSTANT     150.00000000
  botm  LAYERED
    CONSTANT      50.00000000
    CONSTANT    -100.00000000
    CONSTANT    -150.00000000
    CONSTANT    -350.00000000
  idomain
    INTERNAL  FACTOR  1
      0  0  0  0  0  1  1  2  1  1  0  0  0  0  0
      0  0  0  0  2  1  1  2  1  1  1  2  0  0  0
      0  0  0  2  1  1  1  1  1  1  1  1  0  0  0
      0  0  0  1  1  1  1  1  1  1  1  2  0  0  0
      0  0  2  1  1  1  1  1  1  1  1  1  2  0  0
      0  0  1  1  1  1  1  1  1  1  1  1  1  2  0
      0  2  1  1  1  1  1  1  1  1  1  1  1  1  0
      0  1  1  1  1  1  1  1  1  1  1  1  1  1  0
      1  1  1  1  1  1  1  1  1  1  1  1  1  1  1
      1  1  1  1  1  1  1  1  1  1  1  1  1  1  1
      1  1  1  1  1  1  1  1  1  1  1  1  1  1  1
      0  1  1  1  1  1  1  1  1  1  1  1  1  1  1
      0  1  1  1  1  1  1  1  1  1  1  1  1  1  0
      0  2  1  1  1  1  1  1  1  1  1  1  1  2  0
      0  0  1  1  1  1  1  1  1  1  1  1  1  0  0
      0  0  2  1  1  1  1  1  1  1  1  1  2  0  0
      0  0  0  1  1  1  1  1  1  1  1  1  2  0  0
      0  0  0  2  1  1  1  1  1  1  1  2  0  0  0
      0  0  0  0  0  0  2  1  1  1  0  0  0  0  0
      0  0  0  0  0  0  0  1  1  0  0  0  0  0  0
      0  0  0  0  0  1  1  2  1  1  0  0  0  0  0
      0  0  0  0  2  1  1  2  1  1  1  2  0  0  0
      0  0  0  2  1  1  1  1  1  1  1  1  0  0  0
      0  0  0  1  1  1  1  1  1  1  1  2  0  0  0
      0  0  2  1  1  1  1  1  1  1  1  1  2  0  0
      0  0  1  1  1  1  1  1  1  1  1  1  1  2  0
      0  2  1  1  1  1  1  1  1  1  1  1  1  1  0
      0  1  1  1  1  1  1  1  1  1  1  1  1  1  0
      1  1  1  1  1  1  1  1  1  1  1  1  1  1  1
      1  1  1  1  1  1  1  1  1  1  1  1  1  1  1
      1  1  1  1  1  1  1  1  1  1  1  1  1  1  1
      0  1  1  1  1  1  1  1  1  1  1  1  1  1  1
      0  1  1  1  1  1  1  1  1  1  1  1  1  1  0
      0  2  1  1  1  1  1  1  1  1  1  1  1  2  0
      0  0  1  1  1  1  1  1  1  1  1  1  1  0  0
      0  0  2  1  1  1  1  1  1  1  1  1  2  0  0
      0  0  0  1  1  1  1  1  1  1  1  1  2  0  0
      0  0  0  2  1  1  1  1  1  1  1  2  0  0  0
      0  0  0  0  0  0  2  1  1  1  0  0  0  0  0
      0  0  0  0  0  0  0  1  1  0  0  0  0  0  0
      0  0  0  0  0  1  1  2  1  1  0  0  0  0  0
      0  0  0  0  2  1  1  2  1  1  1  2  0  0  0
      0  0  0  2  1  1  1  1  1  1  1  1  0  0  0
      0  0  0  1  1  1  1  1  1  1  1  2  0  0  0
      0  0  2  1  1  1  1  1  1  1  1  1  2  0  0
      0  0  1  1  1  1  1  1  1  1  1  1  1  2  0
      0  2  1  1  1  1  1  1  1  1  1  1  1  1  0
      0  1  1  1  1  1  1  1  1  1  1  1  1  1  0
      1  1  1  1  1  1  1  1  1  1  1  1  1  1  1
      1  1  1  1  1  1  1  1  1  1  1  1  1  1  1
      1  1  1  1  1  1  1  1  1  1  1  1  1  1  1
      0  1  1  1  1  1  1  1  1  1  1  1  1  1  1
      0  1  1  1  1  1  1  1  1  1  1  1  1  1  0
      0  2  1  1  1  1  1  1  1  1  1  1  1  2  0
      0  0  1  1  1  1  1  1  1  1  1  1  1  0  0
      0  0  2  1  1  1  1  1  1  1  1  1  2  0  0
      0  0  0  1  1  1  1  1  1  1  1  1  2  0  0
      0  0  0  2  1  1  1  1  1  1  1  2  0  0  0
      0  0  0  0  0  0  2  1  1  1  0  0  0  0  0
      0  0  0  0  0  0  0  1  1  0  0  0  0  0  0
      0  0  0  0  0  1  1  2  1  1  0  0  0  0  0
      0  0  0  0  2  1  1  2  1  1  1  2  0  0  0
      0  0  0  2  1  1  1  1  1  1  1  1  0  0  0
      0  0  0  1  1  1  1  1  1  1  1  2  0  0  0
      0  0  2  1  1  1  1  1  1  1  1  1  2  0  0
      0  0  1  1  1  1  1  1  1  1  1  1  1  2  0
      0  2  1  1  1  1  1  1  1  1  1  1  1  1  0
      0  1  1  1  1  1  1  1  1  1  1  1  1  1  0
      1  1  1  1  1  1  1  1  1  1  1  1  1  1  1
      1  1  1  1  1  1  1  1  1  1  1  1  1  1  1
      1  1  1  1  1  1  1  1  1  1  1  1  1  1  1
      0  1  1  1  1  1  1  1  1  1  1  1  1  1  1
      0  1  1  1  1  1  1  1  1  1  1  1  1  1  0
      0  2  1  1  1  1  1  1  1  1  1  1  1  2  0
      0  0  1  1  1  1  1  1  1  1  1  1  1  0  0
      0  0  2  1  1  1  1  1  1  1  1  1  2  0  0
      0  0  0  1  1  1  1  1  1  1  1  1  2  0  0
      0  0  0  2  1  1  1  1  1  1  1  2  0  0  0
      0  0  0  0  0  0  2  1  1  1  0  0  0  0  0
      0  0  0  0  0  0  0  1  1  0  0  0  0  0  0
END griddata

