# File generated by Flopy version 3.10.0.dev2 on 05/09/2025 at 15:27:41.
BEGIN options
END options

BEGIN dimensions
  MAXBOUND  18
END dimensions

BEGIN period  1
  1 1 8 5.50000000E-04
  1 2 5 5.50000000E-04
  1 2 8 5.50000000E-04
  1 2 12 5.50000000E-04
  1 3 4 5.50000000E-04
  1 4 12 5.50000000E-04
  1 5 3 5.50000000E-04
  1 5 13 5.50000000E-04
  1 6 14 5.50000000E-04
  1 7 2 5.50000000E-04
  1 14 2 5.50000000E-04
  1 14 14 5.50000000E-04
  1 16 3 5.50000000E-04
  1 16 13 5.50000000E-04
  1 17 13 5.50000000E-04
  1 18 4 5.50000000E-04
  1 18 12 5.50000000E-04
  1 19 7 5.50000000E-04
END period  1

