# File generated by Flopy version 3.10.0.dev2 on 05/09/2025 at 15:28:39.
BEGIN options
END options

BEGIN dimensions
  MAXBOUND  3
END dimensions

BEGIN period  1
  1 43 80 1.92500000E+03
  1 44 80 1.92500000E+03
  1 45 80 1.92500000E+03
END period  1

