# File generated by Flopy version 3.10.0.dev2 on 05/09/2025 at 15:28:39.
BEGIN options
  auxiliary  ddrn
  AUXDEPTHNAME  ddrn
  SAVE_FLOWS
  MOVER
END options

BEGIN dimensions
  MAXBOUND  3178
END dimensions

BEGIN period  1
  1 1 64 2.16600000E+03 10000 -2.50000000E-01 
  1 1 65 2.14800000E+03 10000 -2.50000000E-01 
  1 2 63 2.17000000E+03 10000 -2.50000000E-01 
  1 2 64 2.15800000E+03 10000 -2.50000000E-01 
  1 2 65 2.13600000E+03 10000 -2.50000000E-01 
  1 3 63 2.16100000E+03 10000 -2.50000000E-01 
  1 3 64 2.14400000E+03 10000 -2.50000000E-01 
  1 3 65 2.12400000E+03 10000 -2.50000000E-01 
  1 4 62 2.15800000E+03 10000 -2.50000000E-01 
  1 4 63 2.15200000E+03 10000 -2.50000000E-01 
  1 4 64 2.12800000E+03 10000 -2.50000000E-01 
  1 4 65 2.12100000E+03 10000 -2.50000000E-01 
  1 5 62 2.15300000E+03 10000 -2.50000000E-01 
  1 5 63 2.14100000E+03 10000 -2.50000000E-01 
  1 5 64 2.12200000E+03 10000 -2.50000000E-01 
  1 5 65 2.12000000E+03 10000 -2.50000000E-01 
  1 5 66 2.12100000E+03 10000 -2.50000000E-01 
  1 6 62 2.14900000E+03 10000 -2.50000000E-01 
  1 6 63 2.13400000E+03 10000 -2.50000000E-01 
  1 6 64 2.12100000E+03 10000 -2.50000000E-01 
  1 6 65 2.11900000E+03 10000 -2.50000000E-01 
  1 6 66 2.11900000E+03 10000 -2.50000000E-01 
  1 6 67 2.11700000E+03 10000 -2.50000000E-01 
  1 7 61 2.15600000E+03 10000 -2.50000000E-01 
  1 7 62 2.15100000E+03 10000 -2.50000000E-01 
  1 7 63 2.13600000E+03 10000 -2.50000000E-01 
  1 7 64 2.12500000E+03 10000 -2.50000000E-01 
  1 7 65 2.11800000E+03 10000 -2.50000000E-01 
  1 7 66 2.11500000E+03 10000 -2.50000000E-01 
  1 7 67 2.11400000E+03 10000 -2.50000000E-01 
  1 7 68 2.11600000E+03 10000 -2.50000000E-01 
  1 8 61 2.16000000E+03 10000 -2.50000000E-01 
  1 8 62 2.15300000E+03 10000 -2.50000000E-01 
  1 8 63 2.14200000E+03 10000 -2.50000000E-01 
  1 8 64 2.13000000E+03 10000 -2.50000000E-01 
  1 8 65 2.11700000E+03 10000 -2.50000000E-01 
  1 8 66 2.11100000E+03 10000 -2.50000000E-01 
  1 8 67 2.11200000E+03 10000 -2.50000000E-01 
  1 8 68 2.11500000E+03 10000 -2.50000000E-01 
  1 8 69 2.12000000E+03 10000 -2.50000000E-01 
  1 8 70 2.12300000E+03 10000 -2.50000000E-01 
  1 8 71 2.12500000E+03 10000 -2.50000000E-01 
  1 9 49 2.18500000E+03 10000 -2.50000000E-01 
  1 9 50 2.18400000E+03 10000 -2.50000000E-01 
  1 9 59 2.15200000E+03 10000 -2.50000000E-01 
  1 9 60 2.15600000E+03 10000 -2.50000000E-01 
  1 9 61 2.15500000E+03 10000 -2.50000000E-01 
  1 9 62 2.14600000E+03 10000 -2.50000000E-01 
  1 9 63 2.13800000E+03 10000 -2.50000000E-01 
  1 9 64 2.12800000E+03 10000 -2.50000000E-01 
  1 9 65 2.11400000E+03 10000 -2.50000000E-01 
  1 9 66 2.10900000E+03 10000 -2.50000000E-01 
  1 9 67 2.11000000E+03 10000 -2.50000000E-01 
  1 9 68 2.11400000E+03 10000 -2.50000000E-01 
  1 9 69 2.11900000E+03 10000 -2.50000000E-01 
  1 9 70 2.12400000E+03 10000 -2.50000000E-01 
  1 9 71 2.12600000E+03 10000 -2.50000000E-01 
  1 9 72 2.12200000E+03 10000 -2.50000000E-01 
  1 9 73 2.12000000E+03 10000 -2.50000000E-01 
  1 9 74 2.12100000E+03 10000 -2.50000000E-01 
  1 9 75 2.12300000E+03 10000 -2.50000000E-01 
  1 10 48 2.18800000E+03 10000 -2.50000000E-01 
  1 10 49 2.18300000E+03 10000 -2.50000000E-01 
  1 10 50 2.18200000E+03 10000 -2.50000000E-01 
  1 10 51 2.18600000E+03 10000 -2.50000000E-01 
  1 10 52 2.18100000E+03 10000 -2.50000000E-01 
  1 10 53 2.17200000E+03 10000 -2.50000000E-01 
  1 10 57 2.15300000E+03 10000 -2.50000000E-01 
  1 10 58 2.15100000E+03 10000 -2.50000000E-01 
  1 10 59 2.14900000E+03 10000 -2.50000000E-01 
  1 10 60 2.14800000E+03 10000 -2.50000000E-01 
  1 10 61 2.14700000E+03 10000 -2.50000000E-01 
  1 10 62 2.14200000E+03 10000 -2.50000000E-01 
  1 10 63 2.13300000E+03 10000 -2.50000000E-01 
  1 10 64 2.12100000E+03 10000 -2.50000000E-01 
  1 10 65 2.11200000E+03 10000 -2.50000000E-01 
  1 10 66 2.10700000E+03 10000 -2.50000000E-01 
  1 10 67 2.10800000E+03 10000 -2.50000000E-01 
  1 10 68 2.10900000E+03 10000 -2.50000000E-01 
  1 10 69 2.11800000E+03 10000 -2.50000000E-01 
  1 10 70 2.12200000E+03 10000 -2.50000000E-01 
  1 10 71 2.12500000E+03 10000 -2.50000000E-01 
  1 10 72 2.12300000E+03 10000 -2.50000000E-01 
  1 10 73 2.11800000E+03 10000 -2.50000000E-01 
  1 10 74 2.11900000E+03 10000 -2.50000000E-01 
  1 10 75 2.12000000E+03 10000 -2.50000000E-01 
  1 10 76 2.12200000E+03 10000 -2.50000000E-01 
  1 11 47 2.19400000E+03 10000 -2.50000000E-01 
  1 11 48 2.18600000E+03 10000 -2.50000000E-01 
  1 11 49 2.17800000E+03 10000 -2.50000000E-01 
  1 11 50 2.17900000E+03 10000 -2.50000000E-01 
  1 11 51 2.17600000E+03 10000 -2.50000000E-01 
  1 11 52 2.16900000E+03 10000 -2.50000000E-01 
  1 11 53 2.16600000E+03 10000 -2.50000000E-01 
  1 11 54 2.16500000E+03 10000 -2.50000000E-01 
  1 11 55 2.16300000E+03 10000 -2.50000000E-01 
  1 11 56 2.16000000E+03 10000 -2.50000000E-01 
  1 11 57 2.15600000E+03 10000 -2.50000000E-01 
  1 11 58 2.15000000E+03 10000 -2.50000000E-01 
  1 11 59 2.14700000E+03 10000 -2.50000000E-01 
  1 11 60 2.14400000E+03 10000 -2.50000000E-01 
  1 11 61 2.14100000E+03 10000 -2.50000000E-01 
  1 11 62 2.13800000E+03 10000 -2.50000000E-01 
  1 11 63 2.13000000E+03 10000 -2.50000000E-01 
  1 11 64 2.11900000E+03 10000 -2.50000000E-01 
  1 11 65 2.11000000E+03 10000 -2.50000000E-01 
  1 11 66 2.10500000E+03 10000 -2.50000000E-01 
  1 11 67 2.10600000E+03 10000 -2.50000000E-01 
  1 11 68 2.10700000E+03 10000 -2.50000000E-01 
  1 11 69 2.11600000E+03 10000 -2.50000000E-01 
  1 11 70 2.12300000E+03 10000 -2.50000000E-01 
  1 11 71 2.12400000E+03 10000 -2.50000000E-01 
  1 11 72 2.12200000E+03 10000 -2.50000000E-01 
  1 11 73 2.11700000E+03 10000 -2.50000000E-01 
  1 11 74 2.11200000E+03 10000 -2.50000000E-01 
  1 11 75 2.11400000E+03 10000 -2.50000000E-01 
  1 11 76 2.11800000E+03 10000 -2.50000000E-01 
  1 12 47 2.19300000E+03 10000 -2.50000000E-01 
  1 12 48 2.18200000E+03 10000 -2.50000000E-01 
  1 12 49 2.17400000E+03 10000 -2.50000000E-01 
  1 12 50 2.16700000E+03 10000 -2.50000000E-01 
  1 12 51 2.15800000E+03 10000 -2.50000000E-01 
  1 12 52 2.15600000E+03 10000 -2.50000000E-01 
  1 12 53 2.15700000E+03 10000 -2.50000000E-01 
  1 12 54 2.16100000E+03 10000 -2.50000000E-01 
  1 12 55 2.16200000E+03 10000 -2.50000000E-01 
  1 12 56 2.15900000E+03 10000 -2.50000000E-01 
  1 12 57 2.15400000E+03 10000 -2.50000000E-01 
  1 12 58 2.14800000E+03 10000 -2.50000000E-01 
  1 12 59 2.14300000E+03 10000 -2.50000000E-01 
  1 12 60 2.13900000E+03 10000 -2.50000000E-01 
  1 12 61 2.13600000E+03 10000 -2.50000000E-01 
  1 12 62 2.13500000E+03 10000 -2.50000000E-01 
  1 12 63 2.13100000E+03 10000 -2.50000000E-01 
  1 12 64 2.11800000E+03 10000 -2.50000000E-01 
  1 12 65 2.10900000E+03 10000 -2.50000000E-01 
  1 12 66 2.10400000E+03 10000 -2.50000000E-01 
  1 12 67 2.10500000E+03 10000 -2.50000000E-01 
  1 12 68 2.10500000E+03 10000 -2.50000000E-01 
  1 12 69 2.11200000E+03 10000 -2.50000000E-01 
  1 12 70 2.11700000E+03 10000 -2.50000000E-01 
  1 12 71 2.12000000E+03 10000 -2.50000000E-01 
  1 12 72 2.11900000E+03 10000 -2.50000000E-01 
  1 12 73 2.11500000E+03 10000 -2.50000000E-01 
  1 12 74 2.11000000E+03 10000 -2.50000000E-01 
  1 12 75 2.10800000E+03 10000 -2.50000000E-01 
  1 12 76 2.11200000E+03 10000 -2.50000000E-01 
  1 12 77 2.11700000E+03 10000 -2.50000000E-01 
  1 13 45 2.20700000E+03 10000 -2.50000000E-01 
  1 13 46 2.19700000E+03 10000 -2.50000000E-01 
  1 13 47 2.18700000E+03 10000 -2.50000000E-01 
  1 13 48 2.17900000E+03 10000 -2.50000000E-01 
  1 13 49 2.17100000E+03 10000 -2.50000000E-01 
  1 13 50 2.15900000E+03 10000 -2.50000000E-01 
  1 13 51 2.15000000E+03 10000 -2.50000000E-01 
  1 13 52 2.14400000E+03 10000 -2.50000000E-01 
  1 13 53 2.14500000E+03 10000 -2.50000000E-01 
  1 13 54 2.15200000E+03 10000 -2.50000000E-01 
  1 13 55 2.15700000E+03 10000 -2.50000000E-01 
  1 13 56 2.15600000E+03 10000 -2.50000000E-01 
  1 13 57 2.15100000E+03 10000 -2.50000000E-01 
  1 13 58 2.14500000E+03 10000 -2.50000000E-01 
  1 13 59 2.14000000E+03 10000 -2.50000000E-01 
  1 13 60 2.13500000E+03 10000 -2.50000000E-01 
  1 13 61 2.13200000E+03 10000 -2.50000000E-01 
  1 13 62 2.13000000E+03 10000 -2.50000000E-01 
  1 13 63 2.12700000E+03 10000 -2.50000000E-01 
  1 13 64 2.11700000E+03 10000 -2.50000000E-01 
  1 13 65 2.10800000E+03 10000 -2.50000000E-01 
  1 13 66 2.10300000E+03 10000 -2.50000000E-01 
  1 13 67 2.10200000E+03 10000 -2.50000000E-01 
  1 13 68 2.10200000E+03 10000 -2.50000000E-01 
  1 13 69 2.10700000E+03 10000 -2.50000000E-01 
  1 13 70 2.11000000E+03 10000 -2.50000000E-01 
  1 13 71 2.11200000E+03 10000 -2.50000000E-01 
  1 13 72 2.11400000E+03 10000 -2.50000000E-01 
  1 13 73 2.11200000E+03 10000 -2.50000000E-01 
  1 13 74 2.10700000E+03 10000 -2.50000000E-01 
  1 13 75 2.10200000E+03 10000 -2.50000000E-01 
  1 13 76 2.10900000E+03 10000 -2.50000000E-01 
  1 13 77 2.11600000E+03 10000 -2.50000000E-01 
  1 13 78 2.12300000E+03 10000 -2.50000000E-01 
  1 14 42 2.21900000E+03 10000 -2.50000000E-01 
  1 14 43 2.21300000E+03 10000 -2.50000000E-01 
  1 14 44 2.20900000E+03 10000 -2.50000000E-01 
  1 14 45 2.20000000E+03 10000 -2.50000000E-01 
  1 14 46 2.18500000E+03 10000 -2.50000000E-01 
  1 14 47 2.17800000E+03 10000 -2.50000000E-01 
  1 14 48 2.17200000E+03 10000 -2.50000000E-01 
  1 14 49 2.16100000E+03 10000 -2.50000000E-01 
  1 14 50 2.15600000E+03 10000 -2.50000000E-01 
  1 14 51 2.15100000E+03 10000 -2.50000000E-01 
  1 14 52 2.14700000E+03 10000 -2.50000000E-01 
  1 14 53 2.13500000E+03 10000 -2.50000000E-01 
  1 14 54 2.14000000E+03 10000 -2.50000000E-01 
  1 14 55 2.14700000E+03 10000 -2.50000000E-01 
  1 14 56 2.14900000E+03 10000 -2.50000000E-01 
  1 14 57 2.14700000E+03 10000 -2.50000000E-01 
  1 14 58 2.14200000E+03 10000 -2.50000000E-01 
  1 14 59 2.13700000E+03 10000 -2.50000000E-01 
  1 14 60 2.13000000E+03 10000 -2.50000000E-01 
  1 14 61 2.12900000E+03 10000 -2.50000000E-01 
  1 14 62 2.12600000E+03 10000 -2.50000000E-01 
  1 14 63 2.12200000E+03 10000 -2.50000000E-01 
  1 14 64 2.11600000E+03 10000 -2.50000000E-01 
  1 14 65 2.11100000E+03 10000 -2.50000000E-01 
  1 14 66 2.10200000E+03 10000 -2.50000000E-01 
  1 14 67 2.10000000E+03 10000 -2.50000000E-01 
  1 14 68 2.09800000E+03 10000 -2.50000000E-01 
  1 14 69 2.10100000E+03 10000 -2.50000000E-01 
  1 14 70 2.10400000E+03 10000 -2.50000000E-01 
  1 14 71 2.10700000E+03 10000 -2.50000000E-01 
  1 14 72 2.10800000E+03 10000 -2.50000000E-01 
  1 14 73 2.10600000E+03 10000 -2.50000000E-01 
  1 14 74 2.10000000E+03 10000 -2.50000000E-01 
  1 14 75 2.09900000E+03 10000 -2.50000000E-01 
  1 14 76 2.10800000E+03 10000 -2.50000000E-01 
  1 14 77 2.11500000E+03 10000 -2.50000000E-01 
  1 14 78 2.12400000E+03 10000 -2.50000000E-01 
  1 14 79 2.12800000E+03 10000 -2.50000000E-01 
  1 15 41 2.22500000E+03 10000 -2.50000000E-01 
  1 15 42 2.21800000E+03 10000 -2.50000000E-01 
  1 15 43 2.20800000E+03 10000 -2.50000000E-01 
  1 15 44 2.20600000E+03 10000 -2.50000000E-01 
  1 15 45 2.19100000E+03 10000 -2.50000000E-01 
  1 15 46 2.18000000E+03 10000 -2.50000000E-01 
  1 15 47 2.17400000E+03 10000 -2.50000000E-01 
  1 15 48 2.16700000E+03 10000 -2.50000000E-01 
  1 15 49 2.15800000E+03 10000 -2.50000000E-01 
  1 15 50 2.15500000E+03 10000 -2.50000000E-01 
  1 15 51 2.15000000E+03 10000 -2.50000000E-01 
  1 15 52 2.14800000E+03 10000 -2.50000000E-01 
  1 15 53 2.13300000E+03 10000 -2.50000000E-01 
  1 15 54 2.12800000E+03 10000 -2.50000000E-01 
  1 15 55 2.13200000E+03 10000 -2.50000000E-01 
  1 15 56 2.13600000E+03 10000 -2.50000000E-01 
  1 15 57 2.13900000E+03 10000 -2.50000000E-01 
  1 15 58 2.13800000E+03 10000 -2.50000000E-01 
  1 15 59 2.13400000E+03 10000 -2.50000000E-01 
  1 15 60 2.12800000E+03 10000 -2.50000000E-01 
  1 15 61 2.12500000E+03 10000 -2.50000000E-01 
  1 15 62 2.12100000E+03 10000 -2.50000000E-01 
  1 15 63 2.11800000E+03 10000 -2.50000000E-01 
  1 15 64 2.11500000E+03 10000 -2.50000000E-01 
  1 15 65 2.11000000E+03 10000 -2.50000000E-01 
  1 15 66 2.10400000E+03 10000 -2.50000000E-01 
  1 15 67 2.09900000E+03 10000 -2.50000000E-01 
  1 15 68 2.09400000E+03 10000 -2.50000000E-01 
  1 15 69 2.09500000E+03 10000 -2.50000000E-01 
  1 15 70 2.09700000E+03 10000 -2.50000000E-01 
  1 15 71 2.10100000E+03 10000 -2.50000000E-01 
  1 15 72 2.10200000E+03 10000 -2.50000000E-01 
  1 15 73 2.09900000E+03 10000 -2.50000000E-01 
  1 15 74 2.09400000E+03 10000 -2.50000000E-01 
  1 15 75 2.09500000E+03 10000 -2.50000000E-01 
  1 15 76 2.10300000E+03 10000 -2.50000000E-01 
  1 15 77 2.11300000E+03 10000 -2.50000000E-01 
  1 15 78 2.12100000E+03 10000 -2.50000000E-01 
  1 15 79 2.12700000E+03 10000 -2.50000000E-01 
  1 15 80 2.13100000E+03 10000 -2.50000000E-01 
  1 16 40 2.23000000E+03 10000 -2.50000000E-01 
  1 16 41 2.22200000E+03 10000 -2.50000000E-01 
  1 16 42 2.22400000E+03 10000 -2.50000000E-01 
  1 16 43 2.22600000E+03 10000 -2.50000000E-01 
  1 16 44 2.21500000E+03 10000 -2.50000000E-01 
  1 16 45 2.19800000E+03 10000 -2.50000000E-01 
  1 16 46 2.18800000E+03 10000 -2.50000000E-01 
  1 16 47 2.17900000E+03 10000 -2.50000000E-01 
  1 16 48 2.16800000E+03 10000 -2.50000000E-01 
  1 16 49 2.15700000E+03 10000 -2.50000000E-01 
  1 16 50 2.15400000E+03 10000 -2.50000000E-01 
  1 16 51 2.14900000E+03 10000 -2.50000000E-01 
  1 16 52 2.14200000E+03 10000 -2.50000000E-01 
  1 16 53 2.13100000E+03 10000 -2.50000000E-01 
  1 16 54 2.12200000E+03 10000 -2.50000000E-01 
  1 16 55 2.11700000E+03 10000 -2.50000000E-01 
  1 16 56 2.12100000E+03 10000 -2.50000000E-01 
  1 16 57 2.13000000E+03 10000 -2.50000000E-01 
  1 16 58 2.13100000E+03 10000 -2.50000000E-01 
  1 16 59 2.12700000E+03 10000 -2.50000000E-01 
  1 16 60 2.12300000E+03 10000 -2.50000000E-01 
  1 16 61 2.12000000E+03 10000 -2.50000000E-01 
  1 16 62 2.11600000E+03 10000 -2.50000000E-01 
  1 16 63 2.11300000E+03 10000 -2.50000000E-01 
  1 16 64 2.10800000E+03 10000 -2.50000000E-01 
  1 16 65 2.10900000E+03 10000 -2.50000000E-01 
  1 16 66 2.10300000E+03 10000 -2.50000000E-01 
  1 16 67 2.09800000E+03 10000 -2.50000000E-01 
  1 16 68 2.09100000E+03 10000 -2.50000000E-01 
  1 16 69 2.09200000E+03 10000 -2.50000000E-01 
  1 16 70 2.09400000E+03 10000 -2.50000000E-01 
  1 16 71 2.09600000E+03 10000 -2.50000000E-01 
  1 16 72 2.09500000E+03 10000 -2.50000000E-01 
  1 16 73 2.09200000E+03 10000 -2.50000000E-01 
  1 16 74 2.08800000E+03 10000 -2.50000000E-01 
  1 16 75 2.08900000E+03 10000 -2.50000000E-01 
  1 16 76 2.09700000E+03 10000 -2.50000000E-01 
  1 16 77 2.10900000E+03 10000 -2.50000000E-01 
  1 16 78 2.12000000E+03 10000 -2.50000000E-01 
  1 16 79 2.12600000E+03 10000 -2.50000000E-01 
  1 16 80 2.12800000E+03 10000 -2.50000000E-01 
  1 17 40 2.23500000E+03 10000 -2.50000000E-01 
  1 17 41 2.24000000E+03 10000 -2.50000000E-01 
  1 17 42 2.24100000E+03 10000 -2.50000000E-01 
  1 17 43 2.23500000E+03 10000 -2.50000000E-01 
  1 17 44 2.22000000E+03 10000 -2.50000000E-01 
  1 17 45 2.20200000E+03 10000 -2.50000000E-01 
  1 17 46 2.19100000E+03 10000 -2.50000000E-01 
  1 17 47 2.18100000E+03 10000 -2.50000000E-01 
  1 17 48 2.17500000E+03 10000 -2.50000000E-01 
  1 17 49 2.16400000E+03 10000 -2.50000000E-01 
  1 17 50 2.15500000E+03 10000 -2.50000000E-01 
  1 17 51 2.14800000E+03 10000 -2.50000000E-01 
  1 17 52 2.14100000E+03 10000 -2.50000000E-01 
  1 17 53 2.13500000E+03 10000 -2.50000000E-01 
  1 17 54 2.12600000E+03 10000 -2.50000000E-01 
  1 17 55 2.10700000E+03 10000 -2.50000000E-01 
  1 17 56 2.10600000E+03 10000 -2.50000000E-01 
  1 17 57 2.12000000E+03 10000 -2.50000000E-01 
  1 17 58 2.12200000E+03 10000 -2.50000000E-01 
  1 17 59 2.11900000E+03 10000 -2.50000000E-01 
  1 17 60 2.11600000E+03 10000 -2.50000000E-01 
  1 17 61 2.11200000E+03 10000 -2.50000000E-01 
  1 17 62 2.11000000E+03 10000 -2.50000000E-01 
  1 17 63 2.10700000E+03 10000 -2.50000000E-01 
  1 17 64 2.10700000E+03 10000 -2.50000000E-01 
  1 17 65 2.10600000E+03 10000 -2.50000000E-01 
  1 17 66 2.10400000E+03 10000 -2.50000000E-01 
  1 17 67 2.10000000E+03 10000 -2.50000000E-01 
  1 17 68 2.09000000E+03 10000 -2.50000000E-01 
  1 17 69 2.08700000E+03 10000 -2.50000000E-01 
  1 17 70 2.09000000E+03 10000 -2.50000000E-01 
  1 17 71 2.09200000E+03 10000 -2.50000000E-01 
  1 17 72 2.09100000E+03 10000 -2.50000000E-01 
  1 17 73 2.08500000E+03 10000 -2.50000000E-01 
  1 17 74 2.08200000E+03 10000 -2.50000000E-01 
  1 17 75 2.08100000E+03 10000 -2.50000000E-01 
  1 17 76 2.09000000E+03 10000 -2.50000000E-01 
  1 17 77 2.10600000E+03 10000 -2.50000000E-01 
  1 17 78 2.11900000E+03 10000 -2.50000000E-01 
  1 17 79 2.12200000E+03 10000 -2.50000000E-01 
  1 17 80 2.12300000E+03 10000 -2.50000000E-01 
  1 18 40 2.24800000E+03 10000 -2.50000000E-01 
  1 18 41 2.24200000E+03 10000 -2.50000000E-01 
  1 18 42 2.23300000E+03 10000 -2.50000000E-01 
  1 18 43 2.22100000E+03 10000 -2.50000000E-01 
  1 18 44 2.20700000E+03 10000 -2.50000000E-01 
  1 18 45 2.19300000E+03 10000 -2.50000000E-01 
  1 18 46 2.18000000E+03 10000 -2.50000000E-01 
  1 18 47 2.17100000E+03 10000 -2.50000000E-01 
  1 18 48 2.16500000E+03 10000 -2.50000000E-01 
  1 18 49 2.15700000E+03 10000 -2.50000000E-01 
  1 18 50 2.15000000E+03 10000 -2.50000000E-01 
  1 18 51 2.14600000E+03 10000 -2.50000000E-01 
  1 18 52 2.14000000E+03 10000 -2.50000000E-01 
  1 18 53 2.13600000E+03 10000 -2.50000000E-01 
  1 18 54 2.12300000E+03 10000 -2.50000000E-01 
  1 18 55 2.10000000E+03 10000 -2.50000000E-01 
  1 18 56 2.09400000E+03 10000 -2.50000000E-01 
  1 18 57 2.10900000E+03 10000 -2.50000000E-01 
  1 18 58 2.11300000E+03 10000 -2.50000000E-01 
  1 18 59 2.11100000E+03 10000 -2.50000000E-01 
  1 18 60 2.10800000E+03 10000 -2.50000000E-01 
  1 18 61 2.10600000E+03 10000 -2.50000000E-01 
  1 18 62 2.10600000E+03 10000 -2.50000000E-01 
  1 18 63 2.10400000E+03 10000 -2.50000000E-01 
  1 18 64 2.10500000E+03 10000 -2.50000000E-01 
  1 18 65 2.10300000E+03 10000 -2.50000000E-01 
  1 18 66 2.10200000E+03 10000 -2.50000000E-01 
  1 18 67 2.09900000E+03 10000 -2.50000000E-01 
  1 18 68 2.08900000E+03 10000 -2.50000000E-01 
  1 18 69 2.08300000E+03 10000 -2.50000000E-01 
  1 18 70 2.08800000E+03 10000 -2.50000000E-01 
  1 18 71 2.08900000E+03 10000 -2.50000000E-01 
  1 18 72 2.08800000E+03 10000 -2.50000000E-01 
  1 18 73 2.08400000E+03 10000 -2.50000000E-01 
  1 18 74 2.07600000E+03 10000 -2.50000000E-01 
  1 18 75 2.07500000E+03 10000 -2.50000000E-01 
  1 18 76 2.08200000E+03 10000 -2.50000000E-01 
  1 18 77 2.09600000E+03 10000 -2.50000000E-01 
  1 18 78 2.11000000E+03 10000 -2.50000000E-01 
  1 18 79 2.11500000E+03 10000 -2.50000000E-01 
  1 18 80 2.11900000E+03 10000 -2.50000000E-01 
  1 19 35 2.26200000E+03 10000 -2.50000000E-01 
  1 19 36 2.25200000E+03 10000 -2.50000000E-01 
  1 19 37 2.25300000E+03 10000 -2.50000000E-01 
  1 19 38 2.25100000E+03 10000 -2.50000000E-01 
  1 19 39 2.24300000E+03 10000 -2.50000000E-01 
  1 19 40 2.23400000E+03 10000 -2.50000000E-01 
  1 19 41 2.22400000E+03 10000 -2.50000000E-01 
  1 19 42 2.21300000E+03 10000 -2.50000000E-01 
  1 19 43 2.20300000E+03 10000 -2.50000000E-01 
  1 19 44 2.19100000E+03 10000 -2.50000000E-01 
  1 19 45 2.18000000E+03 10000 -2.50000000E-01 
  1 19 46 2.17000000E+03 10000 -2.50000000E-01 
  1 19 47 2.16200000E+03 10000 -2.50000000E-01 
  1 19 48 2.15300000E+03 10000 -2.50000000E-01 
  1 19 49 2.14300000E+03 10000 -2.50000000E-01 
  1 19 50 2.13600000E+03 10000 -2.50000000E-01 
  1 19 51 2.13000000E+03 10000 -2.50000000E-01 
  1 19 52 2.12600000E+03 10000 -2.50000000E-01 
  1 19 53 2.12400000E+03 10000 -2.50000000E-01 
  1 19 54 2.10900000E+03 10000 -2.50000000E-01 
  1 19 55 2.08700000E+03 10000 -2.50000000E-01 
  1 19 56 2.08600000E+03 10000 -2.50000000E-01 
  1 19 57 2.09800000E+03 10000 -2.50000000E-01 
  1 19 58 2.10200000E+03 10000 -2.50000000E-01 
  1 19 59 2.10100000E+03 10000 -2.50000000E-01 
  1 19 60 2.09900000E+03 10000 -2.50000000E-01 
  1 19 61 2.10000000E+03 10000 -2.50000000E-01 
  1 19 62 2.09800000E+03 10000 -2.50000000E-01 
  1 19 63 2.09900000E+03 10000 -2.50000000E-01 
  1 19 64 2.10200000E+03 10000 -2.50000000E-01 
  1 19 65 2.10100000E+03 10000 -2.50000000E-01 
  1 19 66 2.09900000E+03 10000 -2.50000000E-01 
  1 19 67 2.09600000E+03 10000 -2.50000000E-01 
  1 19 68 2.08800000E+03 10000 -2.50000000E-01 
  1 19 69 2.08000000E+03 10000 -2.50000000E-01 
  1 19 70 2.08500000E+03 10000 -2.50000000E-01 
  1 19 71 2.08600000E+03 10000 -2.50000000E-01 
  1 19 72 2.08400000E+03 10000 -2.50000000E-01 
  1 19 73 2.08100000E+03 10000 -2.50000000E-01 
  1 19 74 2.07200000E+03 10000 -2.50000000E-01 
  1 19 75 2.07000000E+03 10000 -2.50000000E-01 
  1 19 76 2.07600000E+03 10000 -2.50000000E-01 
  1 19 77 2.08500000E+03 10000 -2.50000000E-01 
  1 19 78 2.09700000E+03 10000 -2.50000000E-01 
  1 19 79 2.10700000E+03 10000 -2.50000000E-01 
  1 19 80 2.11300000E+03 10000 -2.50000000E-01 
  1 19 81 2.11500000E+03 10000 -2.50000000E-01 
  1 20 33 2.27000000E+03 10000 -2.50000000E-01 
  1 20 34 2.25600000E+03 10000 -2.50000000E-01 
  1 20 35 2.24000000E+03 10000 -2.50000000E-01 
  1 20 36 2.22500000E+03 10000 -2.50000000E-01 
  1 20 37 2.22800000E+03 10000 -2.50000000E-01 
  1 20 38 2.22700000E+03 10000 -2.50000000E-01 
  1 20 39 2.22200000E+03 10000 -2.50000000E-01 
  1 20 40 2.21300000E+03 10000 -2.50000000E-01 
  1 20 41 2.20400000E+03 10000 -2.50000000E-01 
  1 20 42 2.19300000E+03 10000 -2.50000000E-01 
  1 20 43 2.18200000E+03 10000 -2.50000000E-01 
  1 20 44 2.17200000E+03 10000 -2.50000000E-01 
  1 20 45 2.16200000E+03 10000 -2.50000000E-01 
  1 20 46 2.15500000E+03 10000 -2.50000000E-01 
  1 20 47 2.15000000E+03 10000 -2.50000000E-01 
  1 20 48 2.14600000E+03 10000 -2.50000000E-01 
  1 20 49 2.13700000E+03 10000 -2.50000000E-01 
  1 20 50 2.12400000E+03 10000 -2.50000000E-01 
  1 20 51 2.11200000E+03 10000 -2.50000000E-01 
  1 20 52 2.10200000E+03 10000 -2.50000000E-01 
  1 20 53 2.10000000E+03 10000 -2.50000000E-01 
  1 20 54 2.09000000E+03 10000 -2.50000000E-01 
  1 20 55 2.07300000E+03 10000 -2.50000000E-01 
  1 20 56 2.07500000E+03 10000 -2.50000000E-01 
  1 20 57 2.08500000E+03 10000 -2.50000000E-01 
  1 20 58 2.09300000E+03 10000 -2.50000000E-01 
  1 20 59 2.09200000E+03 10000 -2.50000000E-01 
  1 20 60 2.09300000E+03 10000 -2.50000000E-01 
  1 20 61 2.09400000E+03 10000 -2.50000000E-01 
  1 20 62 2.09300000E+03 10000 -2.50000000E-01 
  1 20 63 2.09600000E+03 10000 -2.50000000E-01 
  1 20 64 2.09800000E+03 10000 -2.50000000E-01 
  1 20 65 2.10000000E+03 10000 -2.50000000E-01 
  1 20 66 2.09800000E+03 10000 -2.50000000E-01 
  1 20 67 2.09100000E+03 10000 -2.50000000E-01 
  1 20 68 2.08500000E+03 10000 -2.50000000E-01 
  1 20 69 2.07500000E+03 10000 -2.50000000E-01 
  1 20 70 2.07700000E+03 10000 -2.50000000E-01 
  1 20 71 2.07800000E+03 10000 -2.50000000E-01 
  1 20 72 2.07300000E+03 10000 -2.50000000E-01 
  1 20 73 2.06800000E+03 10000 -2.50000000E-01 
  1 20 74 2.06500000E+03 10000 -2.50000000E-01 
  1 20 75 2.06300000E+03 10000 -2.50000000E-01 
  1 20 76 2.06600000E+03 10000 -2.50000000E-01 
  1 20 77 2.07400000E+03 10000 -2.50000000E-01 
  1 20 78 2.08400000E+03 10000 -2.50000000E-01 
  1 20 79 2.10000000E+03 10000 -2.50000000E-01 
  1 20 80 2.10800000E+03 10000 -2.50000000E-01 
  1 20 81 2.11200000E+03 10000 -2.50000000E-01 
  1 21 30 2.28400000E+03 10000 -2.50000000E-01 
  1 21 31 2.27300000E+03 10000 -2.50000000E-01 
  1 21 32 2.25600000E+03 10000 -2.50000000E-01 
  1 21 33 2.24300000E+03 10000 -2.50000000E-01 
  1 21 34 2.23100000E+03 10000 -2.50000000E-01 
  1 21 35 2.21300000E+03 10000 -2.50000000E-01 
  1 21 36 2.19600000E+03 10000 -2.50000000E-01 
  1 21 37 2.20100000E+03 10000 -2.50000000E-01 
  1 21 38 2.20200000E+03 10000 -2.50000000E-01 
  1 21 39 2.19900000E+03 10000 -2.50000000E-01 
  1 21 40 2.19200000E+03 10000 -2.50000000E-01 
  1 21 41 2.18400000E+03 10000 -2.50000000E-01 
  1 21 42 2.17400000E+03 10000 -2.50000000E-01 
  1 21 43 2.16400000E+03 10000 -2.50000000E-01 
  1 21 44 2.15300000E+03 10000 -2.50000000E-01 
  1 21 45 2.14500000E+03 10000 -2.50000000E-01 
  1 21 46 2.13900000E+03 10000 -2.50000000E-01 
  1 21 47 2.13400000E+03 10000 -2.50000000E-01 
  1 21 48 2.12900000E+03 10000 -2.50000000E-01 
  1 21 49 2.12300000E+03 10000 -2.50000000E-01 
  1 21 50 2.11500000E+03 10000 -2.50000000E-01 
  1 21 51 2.10300000E+03 10000 -2.50000000E-01 
  1 21 52 2.08600000E+03 10000 -2.50000000E-01 
  1 21 53 2.07500000E+03 10000 -2.50000000E-01 
  1 21 54 2.06600000E+03 10000 -2.50000000E-01 
  1 21 55 2.06000000E+03 10000 -2.50000000E-01 
  1 21 56 2.06400000E+03 10000 -2.50000000E-01 
  1 21 57 2.07400000E+03 10000 -2.50000000E-01 
  1 21 58 2.08200000E+03 10000 -2.50000000E-01 
  1 21 59 2.08300000E+03 10000 -2.50000000E-01 
  1 21 60 2.08400000E+03 10000 -2.50000000E-01 
  1 21 61 2.08600000E+03 10000 -2.50000000E-01 
  1 21 62 2.09000000E+03 10000 -2.50000000E-01 
  1 21 63 2.09400000E+03 10000 -2.50000000E-01 
  1 21 64 2.09700000E+03 10000 -2.50000000E-01 
  1 21 65 2.09600000E+03 10000 -2.50000000E-01 
  1 21 66 2.09000000E+03 10000 -2.50000000E-01 
  1 21 67 2.08400000E+03 10000 -2.50000000E-01 
  1 21 68 2.07800000E+03 10000 -2.50000000E-01 
  1 21 69 2.06900000E+03 10000 -2.50000000E-01 
  1 21 70 2.06300000E+03 10000 -2.50000000E-01 
  1 21 71 2.06600000E+03 10000 -2.50000000E-01 
  1 21 72 2.06200000E+03 10000 -2.50000000E-01 
  1 21 73 2.06000000E+03 10000 -2.50000000E-01 
  1 21 74 2.06100000E+03 10000 -2.50000000E-01 
  1 21 75 2.05900000E+03 10000 -2.50000000E-01 
  1 21 76 2.06000000E+03 10000 -2.50000000E-01 
  1 21 77 2.06400000E+03 10000 -2.50000000E-01 
  1 21 78 2.07500000E+03 10000 -2.50000000E-01 
  1 21 79 2.09300000E+03 10000 -2.50000000E-01 
  1 21 80 2.10200000E+03 10000 -2.50000000E-01 
  1 21 81 2.10600000E+03 10000 -2.50000000E-01 
  1 22 28 2.27700000E+03 10000 -2.50000000E-01 
  1 22 29 2.27300000E+03 10000 -2.50000000E-01 
  1 22 30 2.26400000E+03 10000 -2.50000000E-01 
  1 22 31 2.24500000E+03 10000 -2.50000000E-01 
  1 22 32 2.22900000E+03 10000 -2.50000000E-01 
  1 22 33 2.21800000E+03 10000 -2.50000000E-01 
  1 22 34 2.20700000E+03 10000 -2.50000000E-01 
  1 22 35 2.19100000E+03 10000 -2.50000000E-01 
  1 22 36 2.17300000E+03 10000 -2.50000000E-01 
  1 22 37 2.17900000E+03 10000 -2.50000000E-01 
  1 22 38 2.18100000E+03 10000 -2.50000000E-01 
  1 22 39 2.17800000E+03 10000 -2.50000000E-01 
  1 22 40 2.17200000E+03 10000 -2.50000000E-01 
  1 22 41 2.16400000E+03 10000 -2.50000000E-01 
  1 22 42 2.15500000E+03 10000 -2.50000000E-01 
  1 22 43 2.14500000E+03 10000 -2.50000000E-01 
  1 22 44 2.13400000E+03 10000 -2.50000000E-01 
  1 22 45 2.12400000E+03 10000 -2.50000000E-01 
  1 22 46 2.11900000E+03 10000 -2.50000000E-01 
  1 22 47 2.11600000E+03 10000 -2.50000000E-01 
  1 22 48 2.11300000E+03 10000 -2.50000000E-01 
  1 22 49 2.10800000E+03 10000 -2.50000000E-01 
  1 22 50 2.10400000E+03 10000 -2.50000000E-01 
  1 22 51 2.09600000E+03 10000 -2.50000000E-01 
  1 22 52 2.08100000E+03 10000 -2.50000000E-01 
  1 22 53 2.06500000E+03 10000 -2.50000000E-01 
  1 22 54 2.05500000E+03 10000 -2.50000000E-01 
  1 22 55 2.05000000E+03 10000 -2.50000000E-01 
  1 22 56 2.05500000E+03 10000 -2.50000000E-01 
  1 22 57 2.06600000E+03 10000 -2.50000000E-01 
  1 22 58 2.07300000E+03 10000 -2.50000000E-01 
  1 22 59 2.07400000E+03 10000 -2.50000000E-01 
  1 22 60 2.07700000E+03 10000 -2.50000000E-01 
  1 22 61 2.08300000E+03 10000 -2.50000000E-01 
  1 22 62 2.08700000E+03 10000 -2.50000000E-01 
  1 22 63 2.09100000E+03 10000 -2.50000000E-01 
  1 22 64 2.09300000E+03 10000 -2.50000000E-01 
  1 22 65 2.08900000E+03 10000 -2.50000000E-01 
  1 22 66 2.08300000E+03 10000 -2.50000000E-01 
  1 22 67 2.07900000E+03 10000 -2.50000000E-01 
  1 22 68 2.07400000E+03 10000 -2.50000000E-01 
  1 22 69 2.06500000E+03 10000 -2.50000000E-01 
  1 22 70 2.05800000E+03 10000 -2.50000000E-01 
  1 22 71 2.05500000E+03 10000 -2.50000000E-01 
  1 22 72 2.05600000E+03 10000 -2.50000000E-01 
  1 22 73 2.05500000E+03 10000 -2.50000000E-01 
  1 22 74 2.05800000E+03 10000 -2.50000000E-01 
  1 22 75 2.06000000E+03 10000 -2.50000000E-01 
  1 22 76 2.06100000E+03 10000 -2.50000000E-01 
  1 22 77 2.06200000E+03 10000 -2.50000000E-01 
  1 22 78 2.06800000E+03 10000 -2.50000000E-01 
  1 22 79 2.08400000E+03 10000 -2.50000000E-01 
  1 22 80 2.09500000E+03 10000 -2.50000000E-01 
  1 22 81 2.10000000E+03 10000 -2.50000000E-01 
  1 23 25 2.31900000E+03 10000 -2.50000000E-01 
  1 23 26 2.30200000E+03 10000 -2.50000000E-01 
  1 23 27 2.27800000E+03 10000 -2.50000000E-01 
  1 23 28 2.26100000E+03 10000 -2.50000000E-01 
  1 23 29 2.24800000E+03 10000 -2.50000000E-01 
  1 23 30 2.23400000E+03 10000 -2.50000000E-01 
  1 23 31 2.21600000E+03 10000 -2.50000000E-01 
  1 23 32 2.20400000E+03 10000 -2.50000000E-01 
  1 23 33 2.19600000E+03 10000 -2.50000000E-01 
  1 23 34 2.18700000E+03 10000 -2.50000000E-01 
  1 23 35 2.17500000E+03 10000 -2.50000000E-01 
  1 23 36 2.16400000E+03 10000 -2.50000000E-01 
  1 23 37 2.16300000E+03 10000 -2.50000000E-01 
  1 23 38 2.16400000E+03 10000 -2.50000000E-01 
  1 23 39 2.16000000E+03 10000 -2.50000000E-01 
  1 23 40 2.15300000E+03 10000 -2.50000000E-01 
  1 23 41 2.14500000E+03 10000 -2.50000000E-01 
  1 23 42 2.13200000E+03 10000 -2.50000000E-01 
  1 23 43 2.11900000E+03 10000 -2.50000000E-01 
  1 23 44 2.11000000E+03 10000 -2.50000000E-01 
  1 23 45 2.10600000E+03 10000 -2.50000000E-01 
  1 23 46 2.10300000E+03 10000 -2.50000000E-01 
  1 23 47 2.10100000E+03 10000 -2.50000000E-01 
  1 23 48 2.09700000E+03 10000 -2.50000000E-01 
  1 23 49 2.09200000E+03 10000 -2.50000000E-01 
  1 23 50 2.08900000E+03 10000 -2.50000000E-01 
  1 23 51 2.08800000E+03 10000 -2.50000000E-01 
  1 23 52 2.08000000E+03 10000 -2.50000000E-01 
  1 23 53 2.06200000E+03 10000 -2.50000000E-01 
  1 23 54 2.04800000E+03 10000 -2.50000000E-01 
  1 23 55 2.04200000E+03 10000 -2.50000000E-01 
  1 23 56 2.04800000E+03 10000 -2.50000000E-01 
  1 23 57 2.05600000E+03 10000 -2.50000000E-01 
  1 23 58 2.06000000E+03 10000 -2.50000000E-01 
  1 23 59 2.06400000E+03 10000 -2.50000000E-01 
  1 23 60 2.07200000E+03 10000 -2.50000000E-01 