# File generated by Flopy version 3.10.0.dev2 on 05/09/2025 at 15:29:06.
BEGIN options
END options

BEGIN timing
  TDIS6  mp7-p01-gwf.tdis
END timing

BEGIN models
  gwf6  mp7-p01-gwf.nam  mp7-p01-gwf
END models

BEGIN exchanges
END exchanges

BEGIN solutiongroup  1
  ims6  mp7-p01-gwf.ims  mp7-p01-gwf
END solutiongroup  1

