# File generated by Flopy version 3.10.0.dev2 on 05/09/2025 at 15:29:06.
BEGIN options
  SAVE_FLOWS
END options

BEGIN packages
  DIS6  mp7-p01-gwf.dis  dis
  IC6  mp7-p01-gwf.ic  ic
  NPF6  mp7-p01-gwf.npf  npf
  RCH6  mp7-p01-gwf.rcha  rcha_0
  WEL6  mp7-p01-gwf.wel  wel_0
  RIV6  mp7-p01-gwf.riv  riv_0
  OC6  mp7-p01-gwf.oc  oc
END packages

