# File generated by Flopy version 3.10.0.dev2 on 05/09/2025 at 15:29:06.
BEGIN options
  READASARRAYS
  auxiliary  iface  iflowface
END options

BEGIN period  1
  recharge
    CONSTANT       0.00500000
  iface
    CONSTANT       6.00000000
  iflowface
    CONSTANT      -1.00000000
END period  1

