# File generated by Flopy version 3.10.0.dev2 on 05/09/2025 at 15:29:06.
BEGIN options
  COMPLEXITY  simple
END options

BEGIN nonlinear
  OUTER_DVCLOSE  1.00000000E-06
END nonlinear

BEGIN linear
  INNER_DVCLOSE  1.00000000E-06
  inner_rclose  1.00000000E-06
END linear

