# File generated by Flopy version 3.10.0.dev2 on 05/09/2025 at 15:29:06.
BEGIN options
  EXIT_SOLVE_TOLERANCE  1.00000000E-05
  EXTEND_TRACKING
END options

BEGIN dimensions
  NRELEASEPTS  21
END dimensions

BEGIN packagedata
  1  1 1 3    1250.00000000   10250.00000000     400.00000000
  2  1 2 3    1250.00000000    9750.00000000     400.00000000
  3  1 3 3    1250.00000000    9250.00000000     400.00000000
  4  1 4 3    1250.00000000    8750.00000000     400.00000000
  5  1 5 3    1250.00000000    8250.00000000     400.00000000
  6  1 6 3    1250.00000000    7750.00000000     400.00000000
  7  1 7 3    1250.00000000    7250.00000000     400.00000000
  8  1 8 3    1250.00000000    6750.00000000     400.00000000
  9  1 9 3    1250.00000000    6250.00000000     400.00000000
  10  1 10 3    1250.00000000    5750.00000000     400.00000000
  11  1 11 3    1250.00000000    5250.00000000     400.00000000
  12  1 12 3    1250.00000000    4750.00000000     400.00000000
  13  1 13 3    1250.00000000    4250.00000000     400.00000000
  14  1 14 3    1250.00000000    3750.00000000     400.00000000
  15  1 15 3    1250.00000000    3250.00000000     400.00000000
  16  1 16 3    1250.00000000    2750.00000000     400.00000000
  17  1 17 3    1250.00000000    2250.00000000     400.00000000
  18  1 18 3    1250.00000000    1750.00000000     400.00000000
  19  1 19 3    1250.00000000    1250.00000000     400.00000000
  20  1 20 3    1250.00000000     750.00000000     400.00000000
  21  1 21 3    1250.00000000     250.00000000     400.00000000
END packagedata

BEGIN period  1
  FIRST
END period  1

