# File generated by Flopy version 3.10.0.dev2 on 05/09/2025 at 15:29:06.
BEGIN options
END options

BEGIN packages
  DIS6  mp7-p01-prt.dis  dis
  MIP6  mp7-p01-prt.mip  mip
  PRP6  mp7-p01-prt_1a.prp  prp1a
  PRP6  mp7-p01-prt_1b.prp  prp1b
  OC6  mp7-p01-prt.oc  oc
  FMI6  mp7-p01-prt.fmi  fmi
END packages

