# File generated by Flopy version 3.10.0.dev2 on 05/09/2025 at 15:29:06.
BEGIN options
  EXIT_SOLVE_TOLERANCE  1.00000000E-10
  EXTEND_TRACKING
END options

BEGIN dimensions
  NRELEASEPTS  3780
END dimensions

BEGIN packagedata
  1  1 1 1      83.33333333   10083.33333333     400.00000000
  2  1 1 1     250.00000000   10083.33333333     400.00000000
  3  1 1 1     416.66666667   10083.33333333     400.00000000
  4  1 1 1      83.33333333   10250.00000000     400.00000000
  5  1 1 1     250.00000000   10250.00000000     400.00000000
  6  1 1 1     416.66666667   10250.00000000     400.00000000
  7  1 1 1      83.33333333   10416.66666667     400.00000000
  8  1 1 1     250.00000000   10416.66666667     400.00000000
  9  1 1 1     416.66666667   10416.66666667     400.00000000
  10  1 1 2     583.33333333   10083.33333333     400.00000000
  11  1 1 2     750.00000000   10083.33333333     400.00000000
  12  1 1 2     916.66666667   10083.33333333     400.00000000
  13  1 1 2     583.33333333   10250.00000000     400.00000000
  14  1 1 2     750.00000000   10250.00000000     400.00000000
  15  1 1 2     916.66666667   10250.00000000     400.00000000
  16  1 1 2     583.33333333   10416.66666667     400.00000000
  17  1 1 2     750.00000000   10416.66666667     400.00000000
  18  1 1 2     916.66666667   10416.66666667     400.00000000
  19  1 1 3    1083.33333333   10083.33333333     400.00000000
  20  1 1 3    1250.00000000   10083.33333333     400.00000000
  21  1 1 3    1416.66666667   10083.33333333     400.00000000
  22  1 1 3    1083.33333333   10250.00000000     400.00000000
  23  1 1 3    1250.00000000   10250.00000000     400.00000000
  24  1 1 3    1416.66666667   10250.00000000     400.00000000
  25  1 1 3    1083.33333333   10416.66666667     400.00000000
  26  1 1 3    1250.00000000   10416.66666667     400.00000000
  27  1 1 3    1416.66666667   10416.66666667     400.00000000
  28  1 1 4    1583.33333333   10083.33333333     400.00000000
  29  1 1 4    1750.00000000   10083.33333333     400.00000000
  30  1 1 4    1916.66666667   10083.33333333     400.00000000
  31  1 1 4    1583.33333333   10250.00000000     400.00000000
  32  1 1 4    1750.00000000   10250.00000000     400.00000000
  33  1 1 4    1916.66666667   10250.00000000     400.00000000
  34  1 1 4    1583.33333333   10416.66666667     400.00000000
  35  1 1 4    1750.00000000   10416.66666667     400.00000000
  36  1 1 4    1916.66666667   10416.66666667     400.00000000
  37  1 1 5    2083.33333333   10083.33333333     400.00000000
  38  1 1 5    2250.00000000   10083.33333333     400.00000000
  39  1 1 5    2416.66666667   10083.33333333     400.00000000
  40  1 1 5    2083.33333333   10250.00000000     400.00000000
  41  1 1 5    2250.00000000   10250.00000000     400.00000000
  42  1 1 5    2416.66666667   10250.00000000     400.00000000
  43  1 1 5    2083.33333333   10416.66666667     400.00000000
  44  1 1 5    2250.00000000   10416.66666667     400.00000000
  45  1 1 5    2416.66666667   10416.66666667     400.00000000
  46  1 1 6    2583.33333333   10083.33333333     400.00000000
  47  1 1 6    2750.00000000   10083.33333333     400.00000000
  48  1 1 6    2916.66666667   10083.33333333     400.00000000
  49  1 1 6    2583.33333333   10250.00000000     400.00000000
  50  1 1 6    2750.00000000   10250.00000000     400.00000000
  51  1 1 6    2916.66666667   10250.00000000     400.00000000
  52  1 1 6    2583.33333333   10416.66666667     400.00000000
  53  1 1 6    2750.00000000   10416.66666667     400.00000000
  54  1 1 6    2916.66666667   10416.66666667     400.00000000
  55  1 1 7    3083.33333333   10083.33333333     400.00000000
  56  1 1 7    3250.00000000   10083.33333333     400.00000000
  57  1 1 7    3416.66666667   10083.33333333     400.00000000
  58  1 1 7    3083.33333333   10250.00000000     400.00000000
  59  1 1 7    3250.00000000   10250.00000000     400.00000000
  60  1 1 7    3416.66666667   10250.00000000     400.00000000
  61  1 1 7    3083.33333333   10416.66666667     400.00000000
  62  1 1 7    3250.00000000   10416.66666667     400.00000000
  63  1 1 7    3416.66666667   10416.66666667     400.00000000
  64  1 1 8    3583.33333333   10083.33333333     400.00000000
  65  1 1 8    3750.00000000   10083.33333333     400.00000000
  66  1 1 8    3916.66666667   10083.33333333     400.00000000
  67  1 1 8    3583.33333333   10250.00000000     400.00000000
  68  1 1 8    3750.00000000   10250.00000000     400.00000000
  69  1 1 8    3916.66666667   10250.00000000     400.00000000
  70  1 1 8    3583.33333333   10416.66666667     400.00000000
  71  1 1 8    3750.00000000   10416.66666667     400.00000000
  72  1 1 8    3916.66666667   10416.66666667     400.00000000
  73  1 1 9    4083.33333333   10083.33333333     400.00000000
  74  1 1 9    4250.00000000   10083.33333333     400.00000000
  75  1 1 9    4416.66666667   10083.33333333     400.00000000
  76  1 1 9    4083.33333333   10250.00000000     400.00000000
  77  1 1 9    4250.00000000   10250.00000000     400.00000000
  78  1 1 9    4416.66666667   10250.00000000     400.00000000
  79  1 1 9    4083.33333333   10416.66666667     400.00000000
  80  1 1 9    4250.00000000   10416.66666667     400.00000000
  81  1 1 9    4416.66666667   10416.66666667     400.00000000
  82  1 1 10    4583.33333333   10083.33333333     400.00000000
  83  1 1 10    4750.00000000   10083.33333333     400.00000000
  84  1 1 10    4916.66666667   10083.33333333     400.00000000
  85  1 1 10    4583.33333333   10250.00000000     400.00000000
  86  1 1 10    4750.00000000   10250.00000000     400.00000000
  87  1 1 10    4916.66666667   10250.00000000     400.00000000
  88  1 1 10    4583.33333333   10416.66666667     400.00000000
  89  1 1 10    4750.00000000   10416.66666667     400.00000000
  90  1 1 10    4916.66666667   10416.66666667     400.00000000
  91  1 1 11    5083.33333333   10083.33333333     400.00000000
  92  1 1 11    5250.00000000   10083.33333333     400.00000000
  93  1 1 11    5416.66666667   10083.33333333     400.00000000
  94  1 1 11    5083.33333333   10250.00000000     400.00000000
  95  1 1 11    5250.00000000   10250.00000000     400.00000000
  96  1 1 11    5416.66666667   10250.00000000     400.00000000
  97  1 1 11    5083.33333333   10416.66666667     400.00000000
  98  1 1 11    5250.00000000   10416.66666667     400.00000000
  99  1 1 11    5416.66666667   10416.66666667     400.00000000
  100  1 1 12    5583.33333333   10083.33333333     400.00000000
  101  1 1 12    5750.00000000   10083.33333333     400.00000000
  102  1 1 12    5916.66666667   10083.33333333     400.00000000
  103  1 1 12    5583.33333333   10250.00000000     400.00000000
  104  1 1 12    5750.00000000   10250.00000000     400.00000000
  105  1 1 12    5916.66666667   10250.00000000     400.00000000
  106  1 1 12    5583.33333333   10416.66666667     400.00000000
  107  1 1 12    5750.00000000   10416.66666667     400.00000000
  108  1 1 12    5916.66666667   10416.66666667     400.00000000
  109  1 1 13    6083.33333333   10083.33333333     400.00000000
  110  1 1 13    6250.00000000   10083.33333333     400.00000000
  111  1 1 13    6416.66666667   10083.33333333     400.00000000
  112  1 1 13    6083.33333333   10250.00000000     400.00000000
  113  1 1 13    6250.00000000   10250.00000000     400.00000000
  114  1 1 13    6416.66666667   10250.00000000     400.00000000
  115  1 1 13    6083.33333333   10416.66666667     400.00000000
  116  1 1 13    6250.00000000   10416.66666667     400.00000000
  117  1 1 13    6416.66666667   10416.66666667     400.00000000
  118  1 1 14    6583.33333333   10083.33333333     400.00000000
  119  1 1 14    6750.00000000   10083.33333333     400.00000000
  120  1 1 14    6916.66666667   10083.33333333     400.00000000
  121  1 1 14    6583.33333333   10250.00000000     400.00000000
  122  1 1 14    6750.00000000   10250.00000000     400.00000000
  123  1 1 14    6916.66666667   10250.00000000     400.00000000
  124  1 1 14    6583.33333333   10416.66666667     400.00000000
  125  1 1 14    6750.00000000   10416.66666667     400.00000000
  126  1 1 14    6916.66666667   10416.66666667     400.00000000
  127  1 1 15    7083.33333333   10083.33333333     400.00000000
  128  1 1 15    7250.00000000   10083.33333333     400.00000000
  129  1 1 15    7416.66666667   10083.33333333     400.00000000
  130  1 1 15    7083.33333333   10250.00000000     400.00000000
  131  1 1 15    7250.00000000   10250.00000000     400.00000000
  132  1 1 15    7416.66666667   10250.00000000     400.00000000
  133  1 1 15    7083.33333333   10416.66666667     400.00000000
  134  1 1 15    7250.00000000   10416.66666667     400.00000000
  135  1 1 15    7416.66666667   10416.66666667     400.00000000
  136  1 1 16    7583.33333333   10083.33333333     400.00000000
  137  1 1 16    7750.00000000   10083.33333333     400.00000000
  138  1 1 16    7916.66666667   10083.33333333     400.00000000
  139  1 1 16    7583.33333333   10250.00000000     400.00000000
  140  1 1 16    7750.00000000   10250.00000000     400.00000000
  141  1 1 16    7916.66666667   10250.00000000     400.00000000
  142  1 1 16    7583.33333333   10416.66666667     400.00000000
  143  1 1 16    7750.00000000   10416.66666667     400.00000000
  144  1 1 16    7916.66666667   10416.66666667     400.00000000
  145  1 1 17    8083.33333333   10083.33333333     400.00000000
  146  1 1 17    8250.00000000   10083.33333333     400.00000000
  147  1 1 17    8416.66666667   10083.33333333     400.00000000
  148  1 1 17    8083.33333333   10250.00000000     400.00000000
  149  1 1 17    8250.00000000   10250.00000000     400.00000000
  150  1 1 17    8416.66666667   10250.00000000     400.00000000
  151  1 1 17    8083.33333333   10416.66666667     400.00000000
  152  1 1 17    8250.00000000   10416.66666667     400.00000000
  153  1 1 17    8416.66666667   10416.66666667     400.00000000
  154  1 1 18    8583.33333333   10083.33333333     400.00000000
  155  1 1 18    8750.00000000   10083.33333333     400.00000000
  156  1 1 18    8916.66666667   10083.33333333     400.00000000
  157  1 1 18    8583.33333333   10250.00000000     400.00000000
  158  1 1 18    8750.00000000   10250.00000000     400.00000000
  159  1 1 18    8916.66666667   10250.00000000     400.00000000
  160  1 1 18    8583.33333333   10416.66666667     400.00000000
  161  1 1 18    8750.00000000   10416.66666667     400.00000000
  162  1 1 18    8916.66666667   10416.66666667     400.00000000
  163  1 1 19    9083.33333333   10083.33333333     400.00000000
  164  1 1 19    9250.00000000   10083.33333333     400.00000000
  165  1 1 19    9416.66666667   10083.33333333     400.00000000
  166  1 1 19    9083.33333333   10250.00000000     400.00000000
  167  1 1 19    9250.00000000   10250.00000000     400.00000000
  168  1 1 19    9416.66666667   10250.00000000     400.00000000
  169  1 1 19    9083.33333333   10416.66666667     400.00000000
  170  1 1 19    9250.00000000   10416.66666667     400.00000000
  171  1 1 19    9416.66666667   10416.66666667     400.00000000
  172  1 1 20    9583.33333333   10083.33333333     400.00000000
  173  1 1 20    9750.00000000   10083.33333333     400.00000000
  174  1 1 20    9916.66666667   10083.33333333     400.00000000
  175  1 1 20    9583.33333333   10250.00000000     400.00000000
  176  1 1 20    9750.00000000   10250.00000000     400.00000000
  177  1 1 20    9916.66666667   10250.00000000     400.00000000
  178  1 1 20    9583.33333333   10416.66666667     400.00000000
  179  1 1 20    9750.00000000   10416.66666667     400.00000000
  180  1 1 20    9916.66666667   10416.66666667     400.00000000
  181  1 2 1      83.33333333    9583.33333333     400.00000000
  182  1 2 1     250.00000000    9583.33333333     400.00000000
  183  1 2 1     416.66666667    9583.33333333     400.00000000
  184  1 2 1      83.33333333    9750.00000000     400.00000000
  185  1 2 1     250.00000000    9750.00000000     400.00000000
  186  1 2 1     416.66666667    9750.00000000     400.00000000
  187  1 2 1      83.33333333    9916.66666667     400.00000000
  188  1 2 1     250.00000000    9916.66666667     400.00000000
  189  1 2 1     416.66666667    9916.66666667     400.00000000
  190  1 2 2     583.33333333    9583.33333333     400.00000000
  191  1 2 2     750.00000000    9583.33333333     400.00000000
  192  1 2 2     916.66666667    9583.33333333     400.00000000
  193  1 2 2     583.33333333    9750.00000000     400.00000000
  194  1 2 2     750.00000000    9750.00000000     400.00000000
  195  1 2 2     916.66666667    9750.00000000     400.00000000
  196  1 2 2     583.33333333    9916.66666667     400.00000000
  197  1 2 2     750.00000000    9916.66666667     400.00000000
  198  1 2 2     916.66666667    9916.66666667     400.00000000
  199  1 2 3    1083.33333333    9583.33333333     400.00000000
  200  1 2 3    1250.00000000    9583.33333333     400.00000000
  201  1 2 3    1416.66666667    9583.33333333     400.00000000
  202  1 2 3    1083.33333333    9750.00000000     400.00000000
  203  1 2 3    1250.00000000    9750.00000000     400.00000000
  204  1 2 3    1416.66666667    9750.00000000     400.00000000
  205  1 2 3    1083.33333333    9916.66666667     400.00000000
  206  1 2 3    1250.00000000    9916.66666667     400.00000000
  207  1 2 3    1416.66666667    9916.66666667     400.00000000
  208  1 2 4    1583.33333333    9583.33333333     400.00000000
  209  1 2 4    1750.00000000    9583.33333333     400.00000000
  210  1 2 4    1916.66666667    9583.33333333     400.00000000
  211  1 2 4    1583.33333333    9750.00000000     400.00000000
  212  1 2 4    1750.00000000    9750.00000000     400.00000000
  213  1 2 4    1916.66666667    9750.00000000     400.00000000
  214  1 2 4    1583.33333333    9916.66666667     400.00000000
  215  1 2 4    1750.00000000    9916.66666667     400.00000000
  216  1 2 4    1916.66666667    9916.66666667     400.00000000
  217  1 2 5    2083.33333333    9583.33333333     400.00000000
  218  1 2 5    2250.00000000    9583.33333333     400.00000000
  219  1 2 5    2416.66666667    9583.33333333     400.00000000
  220  1 2 5    2083.33333333    9750.00000000     400.00000000
  221  1 2 5    2250.00000000    9750.00000000     400.00000000
  222  1 2 5    2416.66666667    9750.00000000     400.00000000
  223  1 2 5    2083.33333333    9916.66666667     400.00000000
  224  1 2 5    2250.00000000    9916.66666667     400.00000000
  225  1 2 5    2416.66666667    9916.66666667     400.00000000
  226  1 2 6    2583.33333333    9583.33333333     400.00000000
  227  1 2 6    2750.00000000    9583.33333333     400.00000000
  228  1 2 6    2916.66666667    9583.33333333     400.00000000
  229  1 2 6    2583.33333333    9750.00000000     400.00000000
  230  1 2 6    2750.00000000    9750.00000000     400.00000000
  231  1 2 6    2916.66666667    9750.00000000     400.00000000
  232  1 2 6    2583.33333333    9916.66666667     400.00000000
  233  1 2 6    2750.00000000    9916.66666667     400.00000000
  234  1 2 6    2916.66666667    9916.66666667     400.00000000
  235  1 2 7    3083.33333333    9583.33333333     400.00000000
  236  1 2 7    3250.00000000    9583.33333333     400.00000000
  237  1 2 7    3416.66666667    9583.33333333     400.00000000
  238  1 2 7    3083.33333333    9750.00000000     400.00000000
  239  1 2 7    3250.00000000    9750.00000000     400.00000000
  240  1 2 7    3416.66666667    9750.00000000     400.00000000
  241  1 2 7    3083.33333333    9916.66666667     400.00000000
  242  1 2 7    3250.00000000    9916.66666667     400.00000000
  243  1 2 7    3416.66666667    9916.66666667     400.00000000
  244  1 2 8    3583.33333333    9583.33333333     400.00000000
  245  1 2 8    3750.00000000    9583.33333333     400.00000000
  246  1 2 8    3916.66666667    9583.33333333     400.00000000
  247  1 2 8    3583.33333333    9750.00000000     400.00000000
  248  1 2 8    3750.00000000    9750.00000000     400.00000000
  249  1 2 8    3916.66666667    9750.00000000     400.00000000
  250  1 2 8    3583.33333333    9916.66666667     400.00000000
  251  1 2 8    3750.00000000    9916.66666667     400.00000000
  252  1 2 8    3916.66666667    9916.66666667     400.00000000
  253  1 2 9    4083.33333333    9583.33333333     400.00000000
  254  1 2 9    4250.00000000    9583.33333333     400.00000000
  255  1 2 9    4416.66666667    9583.33333333     400.00000000
  256  1 2 9    4083.33333333    9750.00000000     400.00000000
  257  1 2 9    4250.00000000    9750.00000000     400.00000000
  258  1 2 9    4416.66666667    9750.00000000     400.00000000
  259  1 2 9    4083.33333333    9916.66666667     400.00000000
  260  1 2 9    4250.00000000    9916.66666667     400.00000000
  261  1 2 9    4416.66666667    9916.66666667     400.00000000
  262  1 2 10    4583.33333333    9583.33333333     400.00000000
  263  1 2 10    4750.00000000    9583.33333333     400.00000000
  264  1 2 10    4916.66666667    9583.33333333     400.00000000
  265  1 2 10    4583.33333333    9750.00000000     400.00000000
  266  1 2 10    4750.00000000    9750.00000000     400.00000000
  267  1 2 10    4916.66666667    9750.00000000     400.00000000
  268  1 2 10    4583.33333333    9916.66666667     400.00000000
  269  1 2 10    4750.00000000    9916.66666667     400.00000000
  270  1 2 10    4916.66666667    9916.66666667     400.00000000
  271  1 2 11    5083.33333333    9583.33333333     400.00000000
  272  1 2 11    5250.00000000    9583.33333333     400.00000000
  273  1 2 11    5416.66666667    9583.33333333     400.00000000
  274  1 2 11    5083.33333333    9750.00000000     400.00000000
  275  1 2 11    5250.00000000    9750.00000000     400.00000000
  276  1 2 11    5416.66666667    9750.00000000     400.00000000
  277  1 2 11    5083.33333333    9916.66666667     400.00000000
  278  1 2 11    5250.00000000    9916.66666667     400.00000000
  279  1 2 11    5416.66666667    9916.66666667     400.00000000
  280  1 2 12    5583.33333333    9583.33333333     400.00000000
  281  1 2 12    5750.00000000    9583.33333333     400.00000000
  282  1 2 12    5916.66666667    9583.33333333     400.00000000
  283  1 2 12    5583.33333333    9750.00000000     400.00000000
  284  1 2 12    5750.00000000    9750.00000000     400.00000000
  285  1 2 12    5916.66666667    9750.00000000     400.00000000
  286  1 2 12    5583.33333333    9916.66666667     400.00000000
  287  1 2 12    5750.00000000    9916.66666667     400.00000000
  288  1 2 12    5916.66666667    9916.66666667     400.00000000
  289  1 2 13    6083.33333333    9583.33333333     400.00000000
  290  1 2 13    6250.00000000    9583.33333333     400.00000000
  291  1 2 13    6416.66666667    9583.33333333     400.00000000
  292  1 2 13    6083.33333333    9750.00000000     400.00000000
  293  1 2 13    6250.00000000    9750.00000000     400.00000000
  294  1 2 13    6416.66666667    9750.00000000     400.00000000
  295  1 2 13    6083.33333333    9916.66666667     400.00000000
  296  1 2 13    6250.00000000    9916.66666667     400.00000000
  297  1 2 13    6416.66666667    9916.66666667     400.00000000
  298  1 2 14    6583.33333333    9583.33333333     400.00000000
  299  1 2 14    6750.00000000    9583.33333333     400.00000000
  300  1 2 14    6916.66666667    9583.33333333     400.00000000
  301  1 2 14    6583.33333333    9750.00000000     400.00000000
  302  1 2 14    6750.00000000    9750.00000000     400.00000000
  303  1 2 14    6916.66666667    9750.00000000     400.00000000
  304  1 2 14    6583.33333333    9916.66666667     400.00000000
  305  1 2 14    6750.00000000    9916.66666667     400.00000000
  306  1 2 14    6916.66666667    9916.66666667     400.00000000
  307  1 2 15    7083.33333333    9583.33333333     400.00000000
  308  1 2 15    7250.00000000    9583.33333333     400.00000000
  309  1 2 15    7416.66666667    9583.33333333     400.00000000
  310  1 2 15    7083.33333333    9750.00000000     400.00000000
  311  1 2 15    7250.00000000    9750.00000000     400.00000000
  312  1 2 15    7416.66666667    9750.00000000     400.00000000
  313  1 2 15    7083.33333333    9916.66666667     400.00000000
  314  1 2 15    7250.00000000    9916.66666667     400.00000000
  315  1 2 15    7416.66666667    9916.66666667     400.00000000
  316  1 2 16    7583.33333333    9583.33333333     400.00000000
  317  1 2 16    7750.00000000    9583.33333333     400.00000000
  318  1 2 16    7916.66666667    9583.33333333     400.00000000
  319  1 2 16    7583.33333333    9750.00000000     400.00000000
  320  1 2 16    7750.00000000    9750.00000000     400.00000000
  321  1 2 16    7916.66666667    9750.00000000     400.00000000
  322  1 2 16    7583.33333333    9916.66666667     400.00000000
  323  1 2 16    7750.00000000    9916.66666667     400.00000000
  324  1 2 16    7916.66666667    9916.66666667     400.00000000
  325  1 2 17    8083.33333333    9583.33333333     400.00000000
  326  1 2 17    8250.00000000    9583.33333333     400.00000000
  327  1 2 17    8416.66666667    9583.33333333     400.00000000
  328  1 2 17    8083.33333333    9750.00000000     400.00000000
  329  1 2 17    8250.00000000    9750.00000000     400.00000000
  330  1 2 17    8416.66666667    9750.00000000     400.00000000
  331  1 2 17    8083.33333333    9916.66666667     400.00000000
  332  1 2 17    8250.00000000    9916.66666667     400.00000000
  333  1 2 17    8416.66666667    9916.66666667     400.00000000
  334  1 2 18    8583.33333333    9583.33333333     400.00000000
  335  1 2 18    8750.00000000    9583.33333333     400.00000000
  336  1 2 18    8916.66666667    9583.33333333     400.00000000
  337  1 2 18    8583.33333333    9750.00000000     400.00000000
  338  1 2 18    8750.00000000    9750.00000000     400.00000000
  339  1 2 18    8916.66666667    9750.00000000     400.00000000
  340  1 2 18    8583.33333333    9916.66666667     400.00000000
  341  1 2 18    8750.00000000    9916.66666667     400.00000000
  342  1 2 18    8916.66666667    9916.66666667     400.00000000
  343  1 2 19    9083.33333333    9583.33333333     400.00000000
  344  1 2 19    9250.00000000    9583.33333333     400.00000000
  345  1 2 19    9416.66666667    9583.33333333     400.00000000
  346  1 2 19    9083.33333333    9750.00000000     400.00000000
  347  1 2 19    9250.00000000    9750.00000000     400.00000000
  348  1 2 19    9416.66666667    9750.00000000     400.00000000
  349  1 2 19    9083.33333333    9916.66666667     400.00000000
  350  1 2 19    9250.00000000    9916.66666667     400.00000000
  351  1 2 19    9416.66666667    9916.66666667     400.00000000
  352  1 2 20    9583.33333333    9583.33333333     400.00000000
  353  1 2 20    9750.00000000    9583.33333333     400.00000000
  354  1 2 20    9916.66666667    9583.33333333     400.00000000
  355  1 2 20    9583.33333333    9750.00000000     400.00000000
  356  1 2 20    9750.00000000    9750.00000000     400.00000000
  357  1 2 20    9916.66666667    9750.00000000     400.00000000
  358  1 2 20    9583.33333333    9916.66666667     400.00000000
  359  1 2 20    9750.00000000    9916.66666667     400.00000000
  360  1 2 20    9916.66666667    9916.66666667     400.00000000
  361  1 3 1      83.33333333    9083.33333333     400.00000000
  362  1 3 1     250.00000000    9083.33333333     400.00000000
  363  1 3 1     416.66666667    9083.33333333     400.00000000
  364  1 3 1      83.33333333    9250.00000000     400.00000000
  365  1 3 1     250.00000000    9250.00000000     400.00000000
  366  1 3 1     416.66666667    9250.00000000     400.00000000
  367  1 3 1      83.33333333    9416.66666667     400.00000000
  368  1 3 1     250.00000000    9416.66666667     400.00000000
  369  1 3 1     416.66666667    9416.66666667     400.00000000
  370  1 3 2     583.33333333    9083.33333333     400.00000000
  371  1 3 2     750.00000000    9083.33333333     400.00000000
  372  1 3 2     916.66666667    9083.33333333     400.00000000
  373  1 3 2     583.33333333    9250.00000000     400.00000000
  374  1 3 2     750.00000000    9250.00000000     400.00000000
  375  1 3 2     916.66666667    9250.00000000     400.00000000
  376  1 3 2     583.33333333    9416.66666667     400.00000000
  377  1 3 2     750.00000000    9416.66666667     400.00000000
  378  1 3 2     916.66666667    9416.66666667     400.00000000
  379  1 3 3    1083.33333333    9083.33333333     400.00000000
  380  1 3 3    1250.00000000    9083.33333333     400.00000000
  381  1 3 3    1416.66666667    9083.33333333     400.00000000
  382  1 3 3    1083.33333333    9250.00000000     400.00000000
  383  1 3 3    1250.00000000    9250.00000000     400.00000000
  384  1 3 3    1416.66666667    9250.00000000     400.00000000
  385  1 3 3    1083.33333333    9416.66666667     400.00000000
  386  1 3 3    1250.00000000    9416.66666667     400.00000000
  387  1 3 3    1416.66666667    9416.66666667     400.00000000
  388  1 3 4    1583.33333333    9083.33333333     400.00000000
  389  1 3 4    1750.00000000    9083.33333333     400.00000000
  390  1 3 4    1916.66666667    9083.33333333     400.00000000
  391  1 3 4    1583.33333333    9250.00000000     400.00000000
  392  1 3 4    1750.00000000    9250.00000000     400.00000000
  393  1 3 4    1916.66666667    9250.00000000     400.00000000
  394  1 3 4    1583.33333333    9416.66666667     400.00000000
  395  1 3 4    1750.00000000    9416.66666667     400.00000000
  396  1 3 4    1916.66666667    9416.66666667     400.00000000
  397  1 3 5    2083.33333333    9083.33333333     400.00000000
  398  1 3 5    2250.00000000    9083.33333333     400.00000000
  399  1 3 5    2416.66666667    9083.33333333     400.00000000
  400  1 3 5    2083.33333333    9250.00000000     400.00000000
  401  1 3 5    2250.00000000    9250.00000000     400.00000000
  402  1 3 5    2416.66666667    9250.00000000     400.00000000
  403  1 3 5    2083.33333333    9416.66666667     400.00000000
  404  1 3 5    2250.00000000    9416.66666667     400.00000000
  405  1 3 5    2416.66666667    9416.66666667     400.00000000
  406  1 3 6    2583.33333333    9083.33333333     400.00000000
  407  1 3 6    2750.00000000    9083.33333333     400.00000000
  408  1 3 6    2916.66666667    9083.33333333     400.00000000
  409  1 3 6    2583.33333333    9250.00000000     400.00000000
  410  1 3 6    2750.00000000    9250.00000000     400.00000000
  411  1 3 6    2916.66666667    9250.00000000     400.00000000
  412  1 3 6    2583.33333333    9416.66666667     400.00000000
  413  1 3 6    2750.00000000    9416.66666667     400.00000000
  414  1 3 6    2916.66666667    9416.66666667     400.00000000
  415  1 3 7    3083.33333333    9083.33333333     400.00000000
  416  1 3 7    3250.00000000    9083.33333333     400.00000000
  417  1 3 7    3416.66666667    9083.33333333     400.00000000
  418  1 3 7    3083.33333333    9250.00000000     400.00000000
  419  1 3 7    3250.00000000    9250.00000000     400.00000000
  420  1 3 7    3416.66666667    9250.00000000     400.00000000
  421  1 3 7    3083.33333333    9416.66666667     400.00000000
  422  1 3 7    3250.00000000    9416.66666667     400.00000000
  423  1 3 7    3416.66666667    9416.66666667     400.00000000
  424  1 3 8    3583.33333333    9083.33333333     400.00000000
  425  1 3 8    3750.00000000    9083.33333333     400.00000000
  426  1 3 8    3916.66666667    9083.33333333     400.00000000
  427  1 3 8    3583.33333333    9250.00000000     400.00000000
  428  1 3 8    3750.00000000    9250.00000000     400.00000000
  429  1 3 8    3916.66666667    9250.00000000     400.00000000
  430  1 3 8    3583.33333333    9416.66666667     400.00000000
  431  1 3 8    3750.00000000    9416.66666667     400.00000000
  432  1 3 8    3916.66666667    9416.66666667     400.00000000
  433  1 3 9    4083.33333333    9083.33333333     400.00000000
  434  1 3 9    4250.00000000    9083.33333333     400.00000000
  435  1 3 9    4416.66666667    9083.33333333     400.00000000
  436  1 3 9    4083.33333333    9250.00000000     400.00000000
  437  1 3 9    4250.00000000    9250.00000000     400.00000000
  438  1 3 9    4416.66666667    9250.00000000     400.00000000
  439  1 3 9    4083.33333333    9416.66666667     400.00000000
  440  1 3 9    4250.00000000    9416.66666667     400.00000000
  441  1 3 9    4416.66666667    9416.66666667     400.00000000
  442  1 3 10    4583.33333333    9083.33333333     400.00000000
  443  1 3 10    4750.00000000    9083.33333333     400.00000000
  444  1 3 10    4916.66666667    9083.33333333     400.00000000
  445  1 3 10    4583.33333333    9250.00000000     400.00000000
  446  1 3 10    4750.00000000    9250.00000000     400.00000000
  447  1 3 10    4916.66666667    9250.00000000     400.00000000
  448  1 3 10    4583.33333333    9416.66666667     400.00000000
  449  1 3 10    4750.00000000    9416.66666667     400.00000000
  450  1 3 10    4916.66666667    9416.66666667     400.00000000
  451  1 3 11    5083.33333333    9083.33333333     400.00000000
  452  1 3 11    5250.00000000    9083.33333333     400.00000000
  453  1 3 11    5416.66666667    9083.33333333     400.00000000
  454  1 3 11    5083.33333333    9250.00000000     400.00000000
  455  1 3 11    5250.00000000    9250.00000000     400.00000000
  456  1 3 11    5416.66666667    9250.00000000     400.00000000
  457  1 3 11    5083.33333333    9416.66666667     400.00000000
  458  1 3 11    5250.00000000    9416.66666667     400.00000000
  459  1 3 11    5416.66666667    9416.66666667     400.00000000
  460  1 3 12    5583.33333333    9083.33333333     400.00000000
  461  1 3 12    5750.00000000    9083.33333333     400.00000000
  462  1 3 12    5916.66666667    9083.33333333     400.00000000
  463  1 3 12    5583.33333333    9250.00000000     400.00000000