# File generated by Flopy version 3.10.0.dev2 on 05/09/2025 at 15:29:06.
BEGIN options
END options

BEGIN packagedata
  GWFHEAD  FILEIN  ../gwf/mp7-p01-gwf.hds
  GWFBUDGET  FILEIN  ../gwf/mp7-p01-gwf.cbb
END packagedata

