# File generated by Flopy version 3.10.0.dev2 on 05/09/2025 at 15:29:06.
BEGIN options
  BUDGET  FILEOUT  mp7-p01-prt.cbb
  TRACK  FILEOUT  mp7-p01-prt.trk
  TRACKCSV  FILEOUT  mp7-p01-prt.trk.csv
END options

BEGIN dimensions
  NTRACKTIMES  72
END dimensions

BEGIN tracktimes
       0.00000000
    1000.00000000
    2000.00000000
    3000.00000000
    4000.00000000
    5000.00000000
    6000.00000000
    7000.00000000
    8000.00000000
    9000.00000000
   10000.00000000
   11000.00000000
   12000.00000000
   13000.00000000
   14000.00000000
   15000.00000000
   16000.00000000
   17000.00000000
   18000.00000000
   19000.00000000
   20000.00000000
   21000.00000000
   22000.00000000
   23000.00000000
   24000.00000000
   25000.00000000
   26000.00000000
   27000.00000000
   28000.00000000
   29000.00000000
   30000.00000000
   31000.00000000
   32000.00000000
   33000.00000000
   34000.00000000
   35000.00000000
   36000.00000000
   37000.00000000
   38000.00000000
   39000.00000000
   40000.00000000
   41000.00000000
   42000.00000000
   43000.00000000
   44000.00000000
   45000.00000000
   46000.00000000
   47000.00000000
   48000.00000000
   49000.00000000
   50000.00000000
   51000.00000000
   52000.00000000
   53000.00000000
   54000.00000000
   55000.00000000
   56000.00000000
   57000.00000000
   58000.00000000
   59000.00000000
   60000.00000000
   61000.00000000
   62000.00000000
   63000.00000000
   64000.00000000
   65000.00000000
   66000.00000000
   67000.00000000
   68000.00000000
   69000.00000000
   70000.00000000
   71000.00000000
END tracktimes

BEGIN period  1
  SAVE  BUDGET  ALL
END period  1

