# File generated by Flopy version 3.10.0.dev2 on 05/09/2025 at 15:27:40.
BEGIN options
  TIME_UNITS  days
END options

BEGIN dimensions
  NPER  353
END dimensions

BEGIN perioddata
     365.25000000  12       1.00000000
     365.25000000  12       1.00000000
     365.25000000  12       1.00000000
     365.25000000  12       1.00000000
     365.25000000  12       1.00000000
     365.25000000  12       1.00000000
     365.25000000  12       1.00000000
     365.25000000  12       1.00000000
     365.25000000  12       1.00000000
     365.25000000  12       1.00000000
     365.25000000  12       1.00000000
     365.25000000  12       1.00000000
     365.25000000  12       1.00000000
     365.25000000  12       1.00000000
     365.25000000  12       1.00000000
     365.25000000  12       1.00000000
     365.25000000  12       1.00000000
     365.25000000  12       1.00000000
     365.25000000  12       1.00000000
     365.25000000  12       1.00000000
     365.25000000  12       1.00000000
     365.25000000  12       1.00000000
     365.25000000  12       1.00000000
     365.25000000  12       1.00000000
     365.25000000  12       1.00000000
     365.25000000  12       1.00000000
     365.25000000  12       1.00000000
     365.25000000  12       1.00000000
     365.25000000  12       1.00000000
     365.25000000  12       1.00000000
     365.25000000  12       1.00000000
     365.25000000  12       1.00000000
     365.25000000  12       1.00000000
     365.25000000  12       1.00000000
     365.25000000  12       1.00000000
     365.25000000  12       1.00000000
     365.25000000  12       1.00000000
     365.25000000  12       1.00000000
     365.25000000  12       1.00000000
     365.25000000  12       1.00000000
     365.25000000  12       1.00000000
     365.25000000  12       1.00000000
     365.25000000  12       1.00000000
     365.25000000  12       1.00000000
     365.25000000  12       1.00000000
     365.25000000  12       1.00000000
     365.25000000  12       1.00000000
     365.25000000  12       1.00000000
     365.25000000  12       1.00000000
     365.25000000  12       1.00000000
     365.25000000  12       1.00000000
     365.25000000  12       1.00000000
     365.25000000  12       1.00000000
     365.25000000  12       1.00000000
     365.25000000  12       1.00000000
     365.25000000  12       1.00000000
     365.25000000  12       1.00000000
     365.25000000  12       1.00000000
     365.25000000  12       1.00000000
     365.25000000  12       1.00000000
     365.25000000  12       1.00000000
     365.25000000  12       1.00000000
     365.25000000  12       1.00000000
     365.25000000  12       1.00000000
     365.25000000  12       1.00000000
     365.25000000  12       1.00000000
     365.25000000  12       1.00000000
     365.25000000  12       1.00000000
     365.25000000  12       1.00000000
     365.25000000  12       1.00000000
     365.25000000  12       1.00000000
     365.25000000  12       1.00000000
     365.25000000  12       1.00000000
     365.25000000  12       1.00000000
     365.25000000  12       1.00000000
     365.25000000  12       1.00000000
     365.25000000  12       1.00000000
     365.25000000  12       1.00000000
     365.25000000  12       1.00000000
     365.25000000  12       1.00000000
     365.25000000  12       1.00000000
     365.25000000  12       1.00000000
      22.00000000  22       1.00000000
      22.00000000  22       1.00000000
      22.00000000  22       1.00000000
      22.00000000  22       1.00000000
      22.00000000  22       1.00000000
      22.00000000  22       1.00000000
      22.00000000  22       1.00000000
      22.00000000  22       1.00000000
      22.00000000  22       1.00000000
      22.00000000  22       1.00000000
      22.00000000  22       1.00000000
      22.00000000  22       1.00000000
      22.00000000  22       1.00000000
      22.00000000  22       1.00000000
      22.00000000  22       1.00000000
      22.00000000  22       1.00000000
      22.00000000  22       1.00000000
      22.00000000  22       1.00000000
      22.00000000  22       1.00000000
      22.00000000  22       1.00000000
      22.00000000  22       1.00000000
      22.00000000  22       1.00000000
      22.00000000  22       1.00000000
      22.00000000  22       1.00000000
      22.00000000  22       1.00000000
      22.00000000  22       1.00000000
      22.00000000  22       1.00000000
      22.00000000  22       1.00000000
      22.00000000  22       1.00000000
      22.00000000  22       1.00000000
      22.00000000  22       1.00000000
      22.00000000  22       1.00000000
      22.00000000  22       1.00000000
      22.00000000  22       1.00000000
      22.00000000  22       1.00000000
      22.00000000  22       1.00000000
      22.00000000  22       1.00000000
      22.00000000  22       1.00000000
      22.00000000  22       1.00000000
      22.00000000  22       1.00000000
      22.00000000  22       1.00000000
      22.00000000  22       1.00000000
      22.00000000  22       1.00000000
      22.00000000  22       1.00000000
      22.00000000  22       1.00000000
      22.00000000  22       1.00000000
      22.00000000  22       1.00000000
      22.00000000  22       1.00000000
      22.00000000  22       1.00000000
      22.00000000  22       1.00000000
      22.00000000  22       1.00000000
      22.00000000  22       1.00000000
      22.00000000  22       1.00000000
      22.00000000  22       1.00000000
      22.00000000  22       1.00000000
      22.00000000  22       1.00000000
      22.00000000  22       1.00000000
      22.00000000  22       1.00000000
      22.00000000  22       1.00000000
      22.00000000  22       1.00000000
      22.00000000  22       1.00000000
      22.00000000  22       1.00000000
      22.00000000  22       1.00000000
      22.00000000  22       1.00000000
      22.00000000  22       1.00000000
      22.00000000  22       1.00000000
      22.00000000  22       1.00000000
      22.00000000  22       1.00000000
      22.00000000  22       1.00000000
      22.00000000  22       1.00000000
      22.00000000  22       1.00000000
      22.00000000  22       1.00000000
      22.00000000  22       1.00000000
      22.00000000  22       1.00000000
      22.00000000  22       1.00000000
      22.00000000  22       1.00000000
      22.00000000  22       1.00000000
      22.00000000  22       1.00000000
      22.00000000  22       1.00000000
      22.00000000  22       1.00000000
      22.00000000  22       1.00000000
      22.00000000  22       1.00000000
      22.00000000  22       1.00000000
      22.00000000  22       1.00000000
      22.00000000  22       1.00000000
      22.00000000  22       1.00000000
      22.00000000  22       1.00000000
      22.00000000  22       1.00000000
      22.00000000  22       1.00000000
      22.00000000  22       1.00000000
      22.00000000  22       1.00000000
      22.00000000  22       1.00000000
      22.00000000  22       1.00000000
      22.00000000  22       1.00000000
      22.00000000  22       1.00000000
      22.00000000  22       1.00000000
      22.00000000  22       1.00000000
      22.00000000  22       1.00000000
      22.00000000  22       1.00000000
      22.00000000  22       1.00000000
      22.00000000  22       1.00000000
      22.00000000  22       1.00000000
      22.00000000  22       1.00000000
      22.00000000  22       1.00000000
      22.00000000  22       1.00000000
      22.00000000  22       1.00000000
      22.00000000  22       1.00000000
      22.00000000  22       1.00000000
      22.00000000  22       1.00000000
      22.00000000  22       1.00000000
      22.00000000  22       1.00000000
      22.00000000  22       1.00000000
      22.00000000  22       1.00000000
      22.00000000  22       1.00000000
      22.00000000  22       1.00000000
      22.00000000  22       1.00000000
      22.00000000  22       1.00000000
      22.00000000  22       1.00000000
      22.00000000  22       1.00000000
      22.00000000  22       1.00000000
      22.00000000  22       1.00000000
      22.00000000  22       1.00000000
      22.00000000  22       1.00000000
      22.00000000  22       1.00000000
      22.00000000  22       1.00000000
      22.00000000  22       1.00000000
      22.00000000  22       1.00000000
      22.00000000  22       1.00000000
      22.00000000  22       1.00000000
      22.00000000  22       1.00000000
      22.00000000  22       1.00000000
      22.00000000  22       1.00000000
      22.00000000  22       1.00000000
      22.00000000  22       1.00000000
      22.00000000  22       1.00000000
      22.00000000  22       1.00000000
      22.00000000  22       1.00000000
      22.00000000  22       1.00000000
      22.00000000  22       1.00000000
      22.00000000  22       1.00000000
      22.00000000  22       1.00000000
      22.00000000  22       1.00000000
      22.00000000  22       1.00000000
      22.00000000  22       1.00000000
      22.00000000  22       1.00000000
      22.00000000  22       1.00000000
      22.00000000  22       1.00000000
      22.00000000  22       1.00000000
      22.00000000  22       1.00000000
      22.00000000  22       1.00000000
      22.00000000  22       1.00000000
      22.00000000  22       1.00000000
      22.00000000  22       1.00000000
      22.00000000  22       1.00000000
      22.00000000  22       1.00000000
      22.00000000  22       1.00000000
      22.00000000  22       1.00000000
      22.00000000  22       1.00000000
      22.00000000  22       1.00000000
      22.00000000  22       1.00000000
      22.00000000  22       1.00000000
      22.00000000  22       1.00000000
      22.00000000  22       1.00000000
      22.00000000  22       1.00000000
      22.00000000  22       1.00000000
      22.00000000  22       1.00000000
      22.00000000  22       1.00000000
      22.00000000  22       1.00000000
      22.00000000  22       1.00000000
      22.00000000  22       1.00000000
      22.00000000  22       1.00000000
      22.00000000  22       1.00000000
      22.00000000  22       1.00000000
      22.00000000  22       1.00000000
      22.00000000  22       1.00000000
      22.00000000  22       1.00000000
      22.00000000  22       1.00000000
      22.00000000  22       1.00000000
      22.00000000  22       1.00000000
      22.00000000  22       1.00000000
      22.00000000  22       1.00000000
      22.00000000  22       1.00000000
      22.00000000  22       1.00000000
      22.00000000  22       1.00000000
      22.00000000  22       1.00000000
      22.00000000  22       1.00000000
      22.00000000  22       1.00000000
      22.00000000  22       1.00000000
      22.00000000  22       1.00000000
      22.00000000  22       1.00000000
      22.00000000  22       1.00000000
      22.00000000  22       1.00000000
      22.00000000  22       1.00000000
      22.00000000  22       1.00000000
      22.00000000  22       1.00000000
      22.00000000  22       1.00000000
      22.00000000  22       1.00000000
      22.00000000  22       1.00000000
      22.00000000  22       1.00000000
      22.00000000  22       1.00000000
      22.00000000  22       1.00000000
      22.00000000  22       1.00000000
      22.00000000  22       1.00000000
      22.00000000  22       1.00000000
      22.00000000  22       1.00000000
      22.00000000  22       1.00000000
      22.00000000  22       1.00000000
      22.00000000  22       1.00000000
      22.00000000  22       1.00000000
      22.00000000  22       1.00000000
      22.00000000  22       1.00000000
      22.00000000  22       1.00000000
      22.00000000  22       1.00000000
      22.00000000  22       1.00000000
      22.00000000  22       1.00000000
      22.00000000  22       1.00000000
      22.00000000  22       1.00000000
      22.00000000  22       1.00000000
      22.00000000  22       1.00000000
      22.00000000  22       1.00000000
      22.00000000  22       1.00000000
      22.00000000  22       1.00000000
      22.00000000  22       1.00000000
      22.00000000  22       1.00000000
      22.00000000  22       1.00000000
      22.00000000  22       1.00000000
      22.00000000  22       1.00000000
      22.00000000  22       1.00000000
      22.00000000  22       1.00000000
      22.00000000  22       1.00000000
      22.00000000  22       1.00000000
      22.00000000  22       1.00000000
      22.00000000  22       1.00000000
      22.00000000  22       1.00000000
      22.00000000  22       1.00000000
      22.00000000  22       1.00000000
      22.00000000  22       1.00000000
      22.00000000  22       1.00000000
      22.00000000  22       1.00000000
      22.00000000  22       1.00000000
      22.00000000  22       1.00000000
      22.00000000  22       1.00000000
      22.00000000  22       1.00000000
      22.00000000  22       1.00000000
      22.00000000  22       1.00000000
      22.00000000  22       1.00000000
      22.00000000  22       1.00000000
      22.00000000  22       1.00000000
      22.00000000  22       1.00000000
      22.00000000  22       1.00000000
      22.00000000  22       1.00000000
      22.00000000  22       1.00000000
      22.00000000  22       1.00000000
      22.00000000  22       1.00000000
      22.00000000  22       1.00000000
      22.00000000  22       1.00000000
      22.00000000  22       1.00000000
      22.00000000  22       1.00000000
      22.00000000  22       1.00000000
      22.00000000  22       1.00000000
      22.00000000  22       1.00000000
      22.00000000  22       1.00000000
      22.00000000  22       1.00000000
      22.00000000  22       1.00000000
      22.00000000  22       1.00000000
      22.00000000  22       1.00000000
      22.00000000  22       1.00000000
      22.00000000  22       1.00000000
      22.00000000  22       1.00000000
      22.00000000  22       1.00000000
      22.00000000  22       1.00000000
END perioddata

