# File generated by Flopy version 3.10.0.dev2 on 05/09/2025 at 15:27:40.
BEGIN options
  SAVE_FLOWS
END options

BEGIN packages
  DIS6  ex-gwf-csub-p03a.dis  dis
  OBS6  ex-gwf-csub-p03a.gwf.obs  obs_0
  IC6  ex-gwf-csub-p03a.ic  ic
  NPF6  ex-gwf-csub-p03a.npf  npf
  STO6  ex-gwf-csub-p03a.sto  sto
  CSUB6  ex-gwf-csub-p03a.csub  csub
  CHD6  ex-gwf-csub-p03a.chd  chd_0
  OC6  ex-gwf-csub-p03a.oc  oc
END packages

