# File generated by Flopy version 3.10.0.dev2 on 05/09/2025 at 15:27:40.
BEGIN options
END options

BEGIN griddata
  iconvert  LAYERED
    CONSTANT  1
    CONSTANT  0
    CONSTANT  0
    CONSTANT  0
    CONSTANT  0
    CONSTANT  0
    CONSTANT  0
    CONSTANT  0
    CONSTANT  0
    CONSTANT  0
    CONSTANT  0
    CONSTANT  0
    CONSTANT  0
    CONSTANT  0
  ss
    CONSTANT       0.00000000
  sy
    CONSTANT       0.00000000
END griddata

BEGIN period  1
  TRANSIENT
END period  1

