# File generated by Flopy version 3.10.0.dev2 on 05/09/2025 at 15:28:04.
BEGIN options
  auxiliary  TEMPERATURE
END options

BEGIN dimensions
  MAXBOUND  90
END dimensions

BEGIN period  1
  1 19802 7.94118401E+00 0.00000000E+00
  1 19803 7.93695635E+00 0.00000000E+00
  1 19804 7.92850357E+00 0.00000000E+00
  1 19805 7.91583950E+00 0.00000000E+00
  1 19806 7.89898049E+00 0.00000000E+00
  1 19807 7.87794546E+00 0.00000000E+00
  1 19808 7.85276032E+00 0.00000000E+00
  1 19809 7.82345310E+00 0.00000000E+00
  1 19810 7.79006353E+00 0.00000000E+00
  1 19811 7.75262908E+00 0.00000000E+00
  1 19812 7.71119396E+00 0.00000000E+00
  1 19813 7.66581405E+00 0.00000000E+00
  1 19814 7.61654316E+00 0.00000000E+00
  1 19815 7.56344148E+00 0.00000000E+00
  1 19816 7.50657119E+00 0.00000000E+00
  1 19817 7.44600204E+00 0.00000000E+00
  1 19818 7.38180357E+00 0.00000000E+00
  1 19819 7.31405911E+00 0.00000000E+00
  1 19820 7.24285545E+00 0.00000000E+00
  1 19821 7.16827178E+00 0.00000000E+00
  1 19822 7.09040303E+00 0.00000000E+00
  1 19823 7.00934403E+00 0.00000000E+00
  1 19824 6.92519815E+00 0.00000000E+00
  1 19825 6.83806168E+00 0.00000000E+00
  1 19826 6.74803724E+00 0.00000000E+00
  1 19827 6.65523749E+00 0.00000000E+00
  1 19828 6.55977517E+00 0.00000000E+00
  1 19829 6.46177130E+00 0.00000000E+00
  1 19830 6.36133744E+00 0.00000000E+00
  1 19831 6.25860309E+00 0.00000000E+00
  1 19832 6.15369471E+00 0.00000000E+00
  1 19833 6.04673466E+00 0.00000000E+00
  1 19834 5.93785561E+00 0.00000000E+00
  1 19835 5.82718907E+00 0.00000000E+00
  1 19836 5.71486920E+00 0.00000000E+00
  1 19837 5.60103387E+00 0.00000000E+00
  1 19838 5.48582284E+00 0.00000000E+00
  1 19839 5.36937516E+00 0.00000000E+00
  1 19840 5.25183322E+00 0.00000000E+00
  1 19841 5.13334075E+00 0.00000000E+00
  1 19842 5.01404064E+00 0.00000000E+00
  1 19843 4.89407909E+00 0.00000000E+00
  1 19844 4.77360207E+00 0.00000000E+00
  1 19845 4.65275653E+00 0.00000000E+00
  1 19846 4.53169009E+00 0.00000000E+00
  1 19937 4.53169009E+00 0.00000000E+00
  1 19938 4.65275653E+00 0.00000000E+00
  1 19939 4.77360207E+00 0.00000000E+00
  1 19940 4.89407909E+00 0.00000000E+00
  1 19941 5.01404064E+00 0.00000000E+00
  1 19942 5.13334075E+00 0.00000000E+00
  1 19943 5.25183322E+00 0.00000000E+00
  1 19944 5.36937516E+00 0.00000000E+00
  1 19945 5.48582284E+00 0.00000000E+00
  1 19946 5.60103387E+00 0.00000000E+00
  1 19947 5.71486920E+00 0.00000000E+00
  1 19948 5.82718907E+00 0.00000000E+00
  1 19949 5.93785561E+00 0.00000000E+00
  1 19950 6.04673466E+00 0.00000000E+00
  1 19951 6.15369471E+00 0.00000000E+00
  1 19952 6.25860309E+00 0.00000000E+00
  1 19953 6.36133744E+00 0.00000000E+00
  1 19954 6.46177130E+00 0.00000000E+00
  1 19955 6.55977517E+00 0.00000000E+00
  1 19956 6.65523749E+00 0.00000000E+00
  1 19957 6.74803724E+00 0.00000000E+00
  1 19958 6.83806168E+00 0.00000000E+00
  1 19959 6.92519815E+00 0.00000000E+00
  1 19960 7.00934403E+00 0.00000000E+00
  1 19961 7.09040303E+00 0.00000000E+00
  1 19962 7.16827178E+00 0.00000000E+00
  1 19963 7.24285545E+00 0.00000000E+00
  1 19964 7.31405911E+00 0.00000000E+00
  1 19965 7.38180357E+00 0.00000000E+00
  1 19966 7.44600204E+00 0.00000000E+00
  1 19967 7.50657119E+00 0.00000000E+00
  1 19968 7.56344148E+00 0.00000000E+00
  1 19969 7.61654316E+00 0.00000000E+00
  1 19970 7.66581405E+00 0.00000000E+00
  1 19971 7.71119396E+00 0.00000000E+00
  1 19972 7.75262908E+00 0.00000000E+00
  1 19973 7.79006353E+00 0.00000000E+00
  1 19974 7.82345310E+00 0.00000000E+00
  1 19975 7.85276032E+00 0.00000000E+00
  1 19976 7.87794546E+00 0.00000000E+00
  1 19977 7.89898049E+00 0.00000000E+00
  1 19978 7.91583950E+00 0.00000000E+00
  1 19979 7.92850357E+00 0.00000000E+00
  1 19980 7.93695635E+00 0.00000000E+00
  1 19981 7.94118401E+00 0.00000000E+00
END period  1

