# File generated by Flopy version 3.10.0.dev2 on 05/09/2025 at 15:28:04.
BEGIN options
  auxiliary  TEMPERATURE
END options

BEGIN dimensions
  MAXBOUND  90
END dimensions

BEGIN period  1
  1 19847 4.41054991E+00 0.00000000E+00
  1 19848 4.28948347E+00 0.00000000E+00
  1 19849 4.16863793E+00 0.00000000E+00
  1 19850 4.04816091E+00 0.00000000E+00
  1 19851 3.92819936E+00 0.00000000E+00
  1 19852 3.80889925E+00 0.00000000E+00
  1 19853 3.69040678E+00 0.00000000E+00
  1 19854 3.57286484E+00 0.00000000E+00
  1 19855 3.45641716E+00 0.00000000E+00
  1 19856 3.34120613E+00 0.00000000E+00
  1 19857 3.22737080E+00 0.00000000E+00
  1 19858 3.11505093E+00 0.00000000E+00
  1 19859 3.00438439E+00 0.00000000E+00
  1 19860 2.89550534E+00 0.00000000E+00
  1 19861 2.78854529E+00 0.00000000E+00
  1 19862 2.68363691E+00 0.00000000E+00
  1 19863 2.58090256E+00 0.00000000E+00
  1 19864 2.48046870E+00 0.00000000E+00
  1 19865 2.38246483E+00 0.00000000E+00
  1 19866 2.28700251E+00 0.00000000E+00
  1 19867 2.19420276E+00 0.00000000E+00
  1 19868 2.10417832E+00 0.00000000E+00
  1 19869 2.01704185E+00 0.00000000E+00
  1 19870 1.93289597E+00 0.00000000E+00
  1 19871 1.85183697E+00 0.00000000E+00
  1 19872 1.77396822E+00 0.00000000E+00
  1 19873 1.69938455E+00 0.00000000E+00
  1 19874 1.62818089E+00 0.00000000E+00
  1 19875 1.56043643E+00 0.00000000E+00
  1 19876 1.49623796E+00 0.00000000E+00
  1 19877 1.43566881E+00 0.00000000E+00
  1 19878 1.37879852E+00 0.00000000E+00
  1 19879 1.32569684E+00 0.00000000E+00
  1 19880 1.27642595E+00 0.00000000E+00
  1 19881 1.23104604E+00 0.00000000E+00
  1 19882 1.18961092E+00 0.00000000E+00
  1 19883 1.15217647E+00 0.00000000E+00
  1 19884 1.11878690E+00 0.00000000E+00
  1 19885 1.08947968E+00 0.00000000E+00
  1 19886 1.06429454E+00 0.00000000E+00
  1 19887 1.04325951E+00 0.00000000E+00
  1 19888 1.02640050E+00 0.00000000E+00
  1 19889 1.01373643E+00 0.00000000E+00
  1 19890 1.00528365E+00 0.00000000E+00
  1 19891 1.00105599E+00 0.00000000E+00
  1 19892 1.00105599E+00 0.00000000E+00
  1 19893 1.00528365E+00 0.00000000E+00
  1 19894 1.01373643E+00 0.00000000E+00
  1 19895 1.02640050E+00 0.00000000E+00
  1 19896 1.04325951E+00 0.00000000E+00
  1 19897 1.06429454E+00 0.00000000E+00
  1 19898 1.08947968E+00 0.00000000E+00
  1 19899 1.11878690E+00 0.00000000E+00
  1 19900 1.15217647E+00 0.00000000E+00
  1 19901 1.18961092E+00 0.00000000E+00
  1 19902 1.23104604E+00 0.00000000E+00
  1 19903 1.27642595E+00 0.00000000E+00
  1 19904 1.32569684E+00 0.00000000E+00
  1 19905 1.37879852E+00 0.00000000E+00
  1 19906 1.43566881E+00 0.00000000E+00
  1 19907 1.49623796E+00 0.00000000E+00
  1 19908 1.56043643E+00 0.00000000E+00
  1 19909 1.62818089E+00 0.00000000E+00
  1 19910 1.69938455E+00 0.00000000E+00
  1 19911 1.77396822E+00 0.00000000E+00
  1 19912 1.85183697E+00 0.00000000E+00
  1 19913 1.93289597E+00 0.00000000E+00
  1 19914 2.01704185E+00 0.00000000E+00
  1 19915 2.10417832E+00 0.00000000E+00
  1 19916 2.19420276E+00 0.00000000E+00
  1 19917 2.28700251E+00 0.00000000E+00
  1 19918 2.38246483E+00 0.00000000E+00
  1 19919 2.48046870E+00 0.00000000E+00
  1 19920 2.58090256E+00 0.00000000E+00
  1 19921 2.68363691E+00 0.00000000E+00
  1 19922 2.78854529E+00 0.00000000E+00
  1 19923 2.89550534E+00 0.00000000E+00
  1 19924 3.00438439E+00 0.00000000E+00
  1 19925 3.11505093E+00 0.00000000E+00
  1 19926 3.22737080E+00 0.00000000E+00
  1 19927 3.34120613E+00 0.00000000E+00
  1 19928 3.45641716E+00 0.00000000E+00
  1 19929 3.57286484E+00 0.00000000E+00
  1 19930 3.69040678E+00 0.00000000E+00
  1 19931 3.80889925E+00 0.00000000E+00
  1 19932 3.92819936E+00 0.00000000E+00
  1 19933 4.04816091E+00 0.00000000E+00
  1 19934 4.16863793E+00 0.00000000E+00
  1 19935 4.28948347E+00 0.00000000E+00
  1 19936 4.41054991E+00 0.00000000E+00
END period  1

