# File generated by Flopy version 3.10.0.dev2 on 05/09/2025 at 15:28:03.
BEGIN options
  SAVE_FLOWS
END options

BEGIN packages
  DISV6  gwf-radial.disv  disv
  NPF6  gwf-radial.npf  npf
  IC6  gwf-radial.ic  ic
  STO6  gwf-radial.sto  sto
  CHD6  ex-gwe-radial-slow.left.chd  chd-left
  CHD6  ex-gwe-radial-slow.right.chd  chd-right
  OC6  gwf-radial.oc  oc
END packages

