# File generated by Flopy version 3.10.0.dev2 on 05/09/2025 at 15:28:04.
BEGIN options
  BUDGET  FILEOUT  ex-gwe-radial-slow.cbc
  HEAD  FILEOUT  ex-gwe-radial-slow.hds
END options

BEGIN period  1
  SAVE  HEAD  LAST
  SAVE  BUDGET  LAST
END period  1

