# File generated by Flopy version 3.10.0.dev2 on 05/09/2025 at 15:28:03.
BEGIN options
END options

BEGIN timing
  TDIS6  ex-gwe-radial-slow.tdis
END timing

BEGIN models
  gwf6  gwf-radial.nam  gwf-radial
END models

BEGIN exchanges
END exchanges

BEGIN solutiongroup  1
  ims6  ex-gwe-radial-slow.ims  gwf-radial
END solutiongroup  1

