# File generated by Flopy version 3.10.0.dev2 on 05/09/2025 at 15:28:19.
BEGIN options
  FIRST_ORDER_DECAY
END options

BEGIN griddata
  porosity
    CONSTANT       0.10000000
  decay
    CONSTANT       0.01000000
END griddata

