# File generated by Flopy version 3.10.0.dev2 on 05/09/2025 at 15:27:35.
BEGIN options
END options

BEGIN dimensions
  MAXBOUND  102
END dimensions

BEGIN period  1
  1 1 1 7.50000000E+00
  1 2 1 7.50000000E+00
  1 3 1 7.50000000E+00
  1 4 1 7.50000000E+00
  1 5 1 7.50000000E+00
  1 6 1 7.50000000E+00
  1 7 1 7.50000000E+00
  1 8 1 7.50000000E+00
  1 9 1 7.50000000E+00
  1 10 1 7.50000000E+00
  1 11 1 7.50000000E+00
  1 12 1 7.50000000E+00
  1 13 1 7.50000000E+00
  1 14 1 7.50000000E+00
  1 15 1 7.50000000E+00
  1 16 1 7.50000000E+00
  1 17 1 7.50000000E+00
  1 18 1 7.50000000E+00
  1 19 1 7.50000000E+00
  1 20 1 7.50000000E+00
  1 21 1 7.50000000E+00
  1 22 1 7.50000000E+00
  1 23 1 7.50000000E+00
  1 24 1 7.50000000E+00
  1 25 1 7.50000000E+00
  1 26 1 7.50000000E+00
  1 27 1 7.50000000E+00
  1 28 1 7.50000000E+00
  1 29 1 7.50000000E+00
  1 30 1 7.50000000E+00
  1 31 1 7.50000000E+00
  1 32 1 7.50000000E+00
  1 33 1 7.50000000E+00
  1 34 1 7.50000000E+00
  1 35 1 7.50000000E+00
  1 36 1 7.50000000E+00
  1 37 1 7.50000000E+00
  1 38 1 7.50000000E+00
  1 39 1 7.50000000E+00
  1 40 1 7.50000000E+00
  1 41 1 7.50000000E+00
  1 42 1 7.50000000E+00
  1 43 1 7.50000000E+00
  1 44 1 7.50000000E+00
  1 45 1 7.50000000E+00
  1 46 1 7.50000000E+00
  1 47 1 7.50000000E+00
  1 48 1 7.50000000E+00
  1 49 1 7.50000000E+00
  1 50 1 7.50000000E+00
  1 51 1 7.50000000E+00
  1 1 51 2.50000000E+00
  1 2 51 2.50000000E+00
  1 3 51 2.50000000E+00
  1 4 51 2.50000000E+00
  1 5 51 2.50000000E+00
  1 6 51 2.50000000E+00
  1 7 51 2.50000000E+00
  1 8 51 2.50000000E+00
  1 9 51 2.50000000E+00
  1 10 51 2.50000000E+00
  1 11 51 2.50000000E+00
  1 12 51 2.50000000E+00
  1 13 51 2.50000000E+00
  1 14 51 2.50000000E+00
  1 15 51 2.50000000E+00
  1 16 51 2.50000000E+00
  1 17 51 2.50000000E+00
  1 18 51 2.50000000E+00
  1 19 51 2.50000000E+00
  1 20 51 2.50000000E+00
  1 21 51 2.50000000E+00
  1 22 51 2.50000000E+00
  1 23 51 2.50000000E+00
  1 24 51 2.50000000E+00
  1 25 51 2.50000000E+00
  1 26 51 2.50000000E+00
  1 27 51 2.50000000E+00
  1 28 51 2.50000000E+00
  1 29 51 2.50000000E+00
  1 30 51 2.50000000E+00
  1 31 51 2.50000000E+00
  1 32 51 2.50000000E+00
  1 33 51 2.50000000E+00
  1 34 51 2.50000000E+00
  1 35 51 2.50000000E+00
  1 36 51 2.50000000E+00
  1 37 51 2.50000000E+00
  1 38 51 2.50000000E+00
  1 39 51 2.50000000E+00
  1 40 51 2.50000000E+00
  1 41 51 2.50000000E+00
  1 42 51 2.50000000E+00
  1 43 51 2.50000000E+00
  1 44 51 2.50000000E+00
  1 45 51 2.50000000E+00
  1 46 51 2.50000000E+00
  1 47 51 2.50000000E+00
  1 48 51 2.50000000E+00
  1 49 51 2.50000000E+00
  1 50 51 2.50000000E+00
  1 51 51 2.50000000E+00
END period  1

