# File generated by Flopy version 3.10.0.dev2 on 05/09/2025 at 15:28:24.
BEGIN options
  SORPTION  langmuir
END options

BEGIN griddata
  porosity
    CONSTANT       0.37000000
  bulk_density
    CONSTANT       1.58700000
  distcoef
    CONSTANT     100.00000000
  sp2
    CONSTANT       0.00300000
END griddata

