# File generated by Flopy version 3.10.0.dev2 on 05/09/2025 at 15:27:34.
BEGIN options
  READASARRAYS
END options

BEGIN period  1
  recharge
    CONSTANT       0.00400000
END period  1

