# File generated by Flopy version 3.10.0.dev2 on 05/09/2025 at 15:27:34.
BEGIN options
  LENGTH_UNITS  feet
END options

BEGIN dimensions
  NLAY  2
  NROW  10
  NCOL  15
END dimensions

BEGIN griddata
  delr
    CONSTANT     500.00000000
  delc
    CONSTANT     500.00000000
  top
    CONSTANT     150.00000000
  botm  LAYERED
    CONSTANT      50.00000000
    CONSTANT     -50.00000000
END griddata

