# File generated by Flopy version 3.10.0.dev2 on 05/09/2025 at 15:27:34.
BEGIN options
  SAVE_SPECIFIC_DISCHARGE
END options

BEGIN griddata
  icelltype  LAYERED
    CONSTANT  1
    CONSTANT  0
  k  LAYERED
    CONSTANT      10.00000000
    CONSTANT       5.00000000
  k33
    CONSTANT       0.10000000
END griddata

