# File generated by Flopy version 3.10.0.dev2 on 05/09/2025 at 15:27:34.
BEGIN options
END options

BEGIN timing
  TDIS6  ex-gwf-bcf2ss.tdis
END timing

BEGIN models
  gwf6  ex-gwf-bcf2ss.nam  ex-gwf-bcf2ss
END models

BEGIN exchanges
END exchanges

BEGIN solutiongroup  1
  ims6  ex-gwf-bcf2ss.ims  ex-gwf-bcf2ss
END solutiongroup  1

