# File generated by Flopy version 3.10.0.dev2 on 05/09/2025 at 15:27:39.
BEGIN options
END options

BEGIN dimensions
  MAXBOUND  5
END dimensions

BEGIN period  1
  1 38 35     -50.00000000
  1 40 40     -50.00000000
  1 42 45     -50.00000000
  1 36 38     -50.00000000
  1 38 43     -50.00000000
END period  1

BEGIN period  2
  1 38 35     -37.50000000
  1 40 40     -37.50000000
  1 42 45     -37.50000000
  1 36 38     -37.50000000
  1 38 43     -37.50000000
END period  2

BEGIN period  3
  1 38 35      -0.00000000
  1 40 40      -0.00000000
  1 42 45      -0.00000000
  1 36 38      -0.00000000
  1 38 43      -0.00000000
END period  3

BEGIN period  4
  1 38 35      50.00000000
  1 40 40      50.00000000
  1 42 45      50.00000000
  1 36 38      50.00000000
  1 38 43      50.00000000
END period  4

BEGIN period  5
  1 38 35      10.00000000
  1 40 40      10.00000000
  1 42 45      10.00000000
  1 36 38      10.00000000
  1 38 43      10.00000000
END period  5

BEGIN period  6
  1 38 35     -45.00000000
  1 40 40     -45.00000000
  1 42 45     -45.00000000
  1 36 38     -45.00000000
  1 38 43     -45.00000000
END period  6

BEGIN period  7
  1 38 35     -50.00000000
  1 40 40     -50.00000000
  1 42 45     -50.00000000
  1 36 38     -50.00000000
  1 38 43     -50.00000000
END period  7

BEGIN period  8
  1 38 35     -37.50000000
  1 40 40     -37.50000000
  1 42 45     -37.50000000
  1 36 38     -37.50000000
  1 38 43     -37.50000000
END period  8

BEGIN period  9
  1 38 35      -0.00000000
  1 40 40      -0.00000000
  1 42 45      -0.00000000
  1 36 38      -0.00000000
  1 38 43      -0.00000000
END period  9

BEGIN period  10
  1 38 35      50.00000000
  1 40 40      50.00000000
  1 42 45      50.00000000
  1 36 38      50.00000000
  1 38 43      50.00000000
END period  10

BEGIN period  11
  1 38 35      10.00000000
  1 40 40      10.00000000
  1 42 45      10.00000000
  1 36 38      10.00000000
  1 38 43      10.00000000
END period  11

BEGIN period  12
  1 38 35     -45.00000000
  1 40 40     -45.00000000
  1 42 45     -45.00000000
  1 36 38     -45.00000000
  1 38 43     -45.00000000
END period  12

BEGIN period  13
  1 38 35     -50.00000000
  1 40 40     -50.00000000
  1 42 45     -50.00000000
  1 36 38     -50.00000000
  1 38 43     -50.00000000
END period  13

BEGIN period  14
  1 38 35     -37.50000000
  1 40 40     -37.50000000
  1 42 45     -37.50000000
  1 36 38     -37.50000000
  1 38 43     -37.50000000
END period  14

BEGIN period  15
  1 38 35      -0.00000000
  1 40 40      -0.00000000
  1 42 45      -0.00000000
  1 36 38      -0.00000000
  1 38 43      -0.00000000
END period  15

BEGIN period  16
  1 38 35      50.00000000
  1 40 40      50.00000000
  1 42 45      50.00000000
  1 36 38      50.00000000
  1 38 43      50.00000000
END period  16

BEGIN period  17
  1 38 35      10.00000000
  1 40 40      10.00000000
  1 42 45      10.00000000
  1 36 38      10.00000000
  1 38 43      10.00000000
END period  17

BEGIN period  18
  1 38 35     -45.00000000
  1 40 40     -45.00000000
  1 42 45     -45.00000000
  1 36 38     -45.00000000
  1 38 43     -45.00000000
END period  18

