# File generated by Flopy version 3.10.0.dev2 on 05/09/2025 at 15:27:39.
BEGIN options
END options

BEGIN sources
  CHD_0  AUX  TEMPERATURE
END sources

