# File generated by Flopy version 3.10.0.dev2 on 05/09/2025 at 15:27:39.
BEGIN options
  DENSITY_WATER    1000.00000000
  HEAT_CAPACITY_WATER    4184.00000000
  LATENT_HEAT_VAPORIZATION  2.45350000E+06
END options

BEGIN griddata
  porosity
    CONSTANT       0.20000000
  heat_capacity_solid
    CONSTANT     900.00000000
  density_solid
    CONSTANT    2650.00000000
END griddata

