# File generated by Flopy version 3.10.0.dev2 on 05/09/2025 at 15:27:39.
BEGIN options
  BUDGET  FILEOUT  gwe-bhe.cbc
  TEMPERATURE  FILEOUT  gwe-bhe.ucn
END options

BEGIN period  1
  SAVE  TEMPERATURE  ALL
  SAVE  BUDGET  ALL
  PRINT  BUDGET  ALL
END period  1

