# File generated by Flopy version 3.10.0.dev2 on 05/09/2025 at 15:27:39.
BEGIN options
  SAVE_FLOWS
END options

BEGIN packages
  DIS6  gwe-bhe.dis  dis
  IC6  gwe-bhe.ic  ic
  ADV6  gwe-bhe.adv  adv
  CND6  gwe-bhe.cnd  cnd
  EST6  gwe-bhe.est  est
  SSM6  gwe-bhe.ssm  ssm
  ESL6  gwe-bhe.esl  esl
  OC6  gwe-bhe.oc  oc
  FMI6  gwe-bhe.fmi  fmi
END packages

