# File generated by Flopy version 3.10.0.dev2 on 05/09/2025 at 15:27:39.
BEGIN options
END options

BEGIN timing
  TDIS6  ex-gwe-bhe.tdis
END timing

BEGIN models
  gwe6  gwe-bhe.nam  gwe-bhe
END models

BEGIN exchanges
END exchanges

BEGIN solutiongroup  1
  ims6  ex-gwe-bhe.ims  gwe-bhe
END solutiongroup  1

