# File generated by Flopy version 3.10.0.dev2 on 05/09/2025 at 15:28:36.
BEGIN options
  SORPTION  linear
  ZERO_ORDER_DECAY
END options

BEGIN griddata
  porosity
    CONSTANT       0.25000000
  volfrac
    CONSTANT       0.20000000
  zetaim
    CONSTANT       0.00100000
  decay
    CONSTANT  -5.00000000E-04
  decay_sorbed
    CONSTANT  -5.00000000E-04
  bulk_density
    CONSTANT       4.00000000
  distcoef
    CONSTANT       0.25000000
END griddata

