# File generated by Flopy version 3.10.0.dev2 on 05/09/2025 at 15:27:47.
BEGIN options
  TRACK  FILEOUT  ex-gwe-prt-prt.trk
  TRACKCSV  FILEOUT  ex-gwe-prt-prt.trk.csv
END options

