# File generated by Flopy version 3.10.0.dev2 on 05/09/2025 at 15:27:47.
BEGIN options
END options

BEGIN packagedata
  GWFHEAD  FILEIN  ../gwf/ex-gwe-prt-gwf.hds
  GWFBUDGET  FILEIN  ../gwf/ex-gwe-prt-gwf.cbc
END packagedata

