# File generated by Flopy version 3.10.0.dev2 on 05/09/2025 at 15:28:02.
BEGIN options
  DIGITS  10
  PRINT_INPUT
END options

BEGIN continuous  FILEOUT  ex-gwf-maw-p01.maw.obs.csv
  head  head  1
  Q1  maw  1  1
  Q2  maw  1  2
END continuous  FILEOUT  ex-gwf-maw-p01.maw.obs.csv

