# File generated by Flopy version 3.10.0.dev2 on 05/09/2025 at 15:27:39.
BEGIN options
  DIGITS  10
  PRINT_INPUT
END options

BEGIN continuous  FILEOUT  gwf_obs.csv
  h1_1_2  HEAD  1 1 2
END continuous  FILEOUT  gwf_obs.csv

