# File generated by Flopy version 3.10.0.dev2 on 05/09/2025 at 15:28:38.
BEGIN options
END options

BEGIN griddata
  alh
    CONSTANT      20.00000000
  ath1
    CONSTANT       2.00000000
  ath2
    CONSTANT       0.20000000
END griddata

