# File generated by Flopy version 3.10.0.dev2 on 05/09/2025 at 15:28:38.
BEGIN options
  PRINT_OPTION  summary
END options

BEGIN nonlinear
  OUTER_MAXIMUM  50
  UNDER_RELAXATION  dbd
  UNDER_RELAXATION_THETA       0.70000000
END nonlinear

BEGIN linear
  LINEAR_ACCELERATION  bicgstab
  RELAXATION_FACTOR       0.97000000
END linear

