# File generated by Flopy version 3.10.0.dev2 on 05/09/2025 at 15:27:39.
BEGIN options
  BUDGET  FILEOUT  ex-gwe-bhe.cbc
  HEAD  FILEOUT  ex-gwe-bhe.hds
END options

BEGIN period  1
  SAVE  HEAD  LAST
  SAVE  BUDGET  LAST
END period  1

