# File generated by Flopy version 3.10.0.dev2 on 05/09/2025 at 15:27:39.
BEGIN options
  auxiliary  TEMPERATURE
END options

BEGIN dimensions
  MAXBOUND  160
END dimensions

BEGIN period  1
  1 1 1 1.00000000E+01 0.00000000E+00
  1 2 1 1.00000000E+01 0.00000000E+00
  1 3 1 1.00000000E+01 0.00000000E+00
  1 4 1 1.00000000E+01 0.00000000E+00
  1 5 1 1.00000000E+01 0.00000000E+00
  1 6 1 1.00000000E+01 0.00000000E+00
  1 7 1 1.00000000E+01 0.00000000E+00
  1 8 1 1.00000000E+01 0.00000000E+00
  1 9 1 1.00000000E+01 0.00000000E+00
  1 10 1 1.00000000E+01 0.00000000E+00
  1 11 1 1.00000000E+01 0.00000000E+00
  1 12 1 1.00000000E+01 0.00000000E+00
  1 13 1 1.00000000E+01 0.00000000E+00
  1 14 1 1.00000000E+01 0.00000000E+00
  1 15 1 1.00000000E+01 0.00000000E+00
  1 16 1 1.00000000E+01 0.00000000E+00
  1 17 1 1.00000000E+01 0.00000000E+00
  1 18 1 1.00000000E+01 0.00000000E+00
  1 19 1 1.00000000E+01 0.00000000E+00
  1 20 1 1.00000000E+01 0.00000000E+00
  1 21 1 1.00000000E+01 0.00000000E+00
  1 22 1 1.00000000E+01 0.00000000E+00
  1 23 1 1.00000000E+01 0.00000000E+00
  1 24 1 1.00000000E+01 0.00000000E+00
  1 25 1 1.00000000E+01 0.00000000E+00
  1 26 1 1.00000000E+01 0.00000000E+00
  1 27 1 1.00000000E+01 0.00000000E+00
  1 28 1 1.00000000E+01 0.00000000E+00
  1 29 1 1.00000000E+01 0.00000000E+00
  1 30 1 1.00000000E+01 0.00000000E+00
  1 31 1 1.00000000E+01 0.00000000E+00
  1 32 1 1.00000000E+01 0.00000000E+00
  1 33 1 1.00000000E+01 0.00000000E+00
  1 34 1 1.00000000E+01 0.00000000E+00
  1 35 1 1.00000000E+01 0.00000000E+00
  1 36 1 1.00000000E+01 0.00000000E+00
  1 37 1 1.00000000E+01 0.00000000E+00
  1 38 1 1.00000000E+01 0.00000000E+00
  1 39 1 1.00000000E+01 0.00000000E+00
  1 40 1 1.00000000E+01 0.00000000E+00
  1 41 1 1.00000000E+01 0.00000000E+00
  1 42 1 1.00000000E+01 0.00000000E+00
  1 43 1 1.00000000E+01 0.00000000E+00
  1 44 1 1.00000000E+01 0.00000000E+00
  1 45 1 1.00000000E+01 0.00000000E+00
  1 46 1 1.00000000E+01 0.00000000E+00
  1 47 1 1.00000000E+01 0.00000000E+00
  1 48 1 1.00000000E+01 0.00000000E+00
  1 49 1 1.00000000E+01 0.00000000E+00
  1 50 1 1.00000000E+01 0.00000000E+00
  1 51 1 1.00000000E+01 0.00000000E+00
  1 52 1 1.00000000E+01 0.00000000E+00
  1 53 1 1.00000000E+01 0.00000000E+00
  1 54 1 1.00000000E+01 0.00000000E+00
  1 55 1 1.00000000E+01 0.00000000E+00
  1 56 1 1.00000000E+01 0.00000000E+00
  1 57 1 1.00000000E+01 0.00000000E+00
  1 58 1 1.00000000E+01 0.00000000E+00
  1 59 1 1.00000000E+01 0.00000000E+00
  1 60 1 1.00000000E+01 0.00000000E+00
  1 61 1 1.00000000E+01 0.00000000E+00
  1 62 1 1.00000000E+01 0.00000000E+00
  1 63 1 1.00000000E+01 0.00000000E+00
  1 64 1 1.00000000E+01 0.00000000E+00
  1 65 1 1.00000000E+01 0.00000000E+00
  1 66 1 1.00000000E+01 0.00000000E+00
  1 67 1 1.00000000E+01 0.00000000E+00
  1 68 1 1.00000000E+01 0.00000000E+00
  1 69 1 1.00000000E+01 0.00000000E+00
  1 70 1 1.00000000E+01 0.00000000E+00
  1 71 1 1.00000000E+01 0.00000000E+00
  1 72 1 1.00000000E+01 0.00000000E+00
  1 73 1 1.00000000E+01 0.00000000E+00
  1 74 1 1.00000000E+01 0.00000000E+00
  1 75 1 1.00000000E+01 0.00000000E+00
  1 76 1 1.00000000E+01 0.00000000E+00
  1 77 1 1.00000000E+01 0.00000000E+00
  1 78 1 1.00000000E+01 0.00000000E+00
  1 79 1 1.00000000E+01 0.00000000E+00
  1 80 1 1.00000000E+01 0.00000000E+00
  1 1 80 9.84200000E+00 0.00000000E+00
  1 2 80 9.84200000E+00 0.00000000E+00
  1 3 80 9.84200000E+00 0.00000000E+00
  1 4 80 9.84200000E+00 0.00000000E+00
  1 5 80 9.84200000E+00 0.00000000E+00
  1 6 80 9.84200000E+00 0.00000000E+00
  1 7 80 9.84200000E+00 0.00000000E+00
  1 8 80 9.84200000E+00 0.00000000E+00
  1 9 80 9.84200000E+00 0.00000000E+00
  1 10 80 9.84200000E+00 0.00000000E+00
  1 11 80 9.84200000E+00 0.00000000E+00
  1 12 80 9.84200000E+00 0.00000000E+00
  1 13 80 9.84200000E+00 0.00000000E+00
  1 14 80 9.84200000E+00 0.00000000E+00
  1 15 80 9.84200000E+00 0.00000000E+00
  1 16 80 9.84200000E+00 0.00000000E+00
  1 17 80 9.84200000E+00 0.00000000E+00
  1 18 80 9.84200000E+00 0.00000000E+00
  1 19 80 9.84200000E+00 0.00000000E+00
  1 20 80 9.84200000E+00 0.00000000E+00
  1 21 80 9.84200000E+00 0.00000000E+00
  1 22 80 9.84200000E+00 0.00000000E+00
  1 23 80 9.84200000E+00 0.00000000E+00
  1 24 80 9.84200000E+00 0.00000000E+00
  1 25 80 9.84200000E+00 0.00000000E+00
  1 26 80 9.84200000E+00 0.00000000E+00
  1 27 80 9.84200000E+00 0.00000000E+00
  1 28 80 9.84200000E+00 0.00000000E+00
  1 29 80 9.84200000E+00 0.00000000E+00
  1 30 80 9.84200000E+00 0.00000000E+00
  1 31 80 9.84200000E+00 0.00000000E+00
  1 32 80 9.84200000E+00 0.00000000E+00
  1 33 80 9.84200000E+00 0.00000000E+00
  1 34 80 9.84200000E+00 0.00000000E+00
  1 35 80 9.84200000E+00 0.00000000E+00
  1 36 80 9.84200000E+00 0.00000000E+00
  1 37 80 9.84200000E+00 0.00000000E+00
  1 38 80 9.84200000E+00 0.00000000E+00
  1 39 80 9.84200000E+00 0.00000000E+00
  1 40 80 9.84200000E+00 0.00000000E+00
  1 41 80 9.84200000E+00 0.00000000E+00
  1 42 80 9.84200000E+00 0.00000000E+00
  1 43 80 9.84200000E+00 0.00000000E+00
  1 44 80 9.84200000E+00 0.00000000E+00
  1 45 80 9.84200000E+00 0.00000000E+00
  1 46 80 9.84200000E+00 0.00000000E+00
  1 47 80 9.84200000E+00 0.00000000E+00
  1 48 80 9.84200000E+00 0.00000000E+00
  1 49 80 9.84200000E+00 0.00000000E+00
  1 50 80 9.84200000E+00 0.00000000E+00
  1 51 80 9.84200000E+00 0.00000000E+00
  1 52 80 9.84200000E+00 0.00000000E+00
  1 53 80 9.84200000E+00 0.00000000E+00
  1 54 80 9.84200000E+00 0.00000000E+00
  1 55 80 9.84200000E+00 0.00000000E+00
  1 56 80 9.84200000E+00 0.00000000E+00
  1 57 80 9.84200000E+00 0.00000000E+00
  1 58 80 9.84200000E+00 0.00000000E+00
  1 59 80 9.84200000E+00 0.00000000E+00
  1 60 80 9.84200000E+00 0.00000000E+00
  1 61 80 9.84200000E+00 0.00000000E+00
  1 62 80 9.84200000E+00 0.00000000E+00
  1 63 80 9.84200000E+00 0.00000000E+00
  1 64 80 9.84200000E+00 0.00000000E+00
  1 65 80 9.84200000E+00 0.00000000E+00
  1 66 80 9.84200000E+00 0.00000000E+00
  1 67 80 9.84200000E+00 0.00000000E+00
  1 68 80 9.84200000E+00 0.00000000E+00
  1 69 80 9.84200000E+00 0.00000000E+00
  1 70 80 9.84200000E+00 0.00000000E+00
  1 71 80 9.84200000E+00 0.00000000E+00
  1 72 80 9.84200000E+00 0.00000000E+00
  1 73 80 9.84200000E+00 0.00000000E+00
  1 74 80 9.84200000E+00 0.00000000E+00
  1 75 80 9.84200000E+00 0.00000000E+00
  1 76 80 9.84200000E+00 0.00000000E+00
  1 77 80 9.84200000E+00 0.00000000E+00
  1 78 80 9.84200000E+00 0.00000000E+00
  1 79 80 9.84200000E+00 0.00000000E+00
  1 80 80 9.84200000E+00 0.00000000E+00
END period  1

