# File generated by Flopy version 3.10.0.dev2 on 05/09/2025 at 15:27:39.
BEGIN options
  SAVE_FLOWS
END options

BEGIN packages
  DIS6  gwf-bhe.dis  dis
  NPF6  gwf-bhe.npf  npf
  IC6  gwf-bhe.ic  ic
  STO6  gwf-bhe.sto  sto
  CHD6  gwf-bhe.chd  chd_0
  OC6  gwf-bhe.oc  oc
END packages

