# File generated by Flopy version 3.10.0.dev2 on 05/09/2025 at 15:28:15.
BEGIN options
  PRINT_FLOWS
END options

BEGIN sources
  CHD-1  AUX  CONCENTRATION
END sources

