# File generated by Flopy version 3.10.0.dev2 on 05/09/2025 at 15:28:15.
BEGIN options
  PRINT_FLOWS
END options

BEGIN dimensions
  MAXBOUND  1
END dimensions

BEGIN period  1
  7 42 22  -1.43400000E-05
END period  1

