# File generated by Flopy version 3.10.0.dev2 on 05/09/2025 at 15:29:25.
BEGIN options
END options

BEGIN griddata
  strt
    INTERNAL  FACTOR  1.0
        66.76228348      66.76228348      66.76228348      66.76228348      66.76228348      66.76228348      66.76228348      66.76228348      66.76228348      66.76228348      66.76228348      66.76228348      66.76228348      66.76228348      66.76228348
        66.15267802      66.15267802      66.15267802      66.15267802      66.15267802      66.15267802      66.15267802      66.15267802      66.15267802      66.15267802      66.15267802      66.15267802      66.15267802      66.15267802      66.15267802
        65.54307255      65.54307255      65.54307255      65.54307255      65.54307255      65.54307255      65.54307255      65.54307255      65.54307255      65.54307255      65.54307255      65.54307255      65.54307255      65.54307255      65.54307255
        64.93346708      64.93346708      64.93346708      64.93346708      64.93346708      64.93346708      64.93346708      64.93346708      64.93346708      64.93346708      64.93346708      64.93346708      64.93346708      64.93346708      64.93346708
        64.32386161      64.32386161      64.32386161      64.32386161      64.32386161      64.32386161      64.32386161      64.32386161      64.32386161      64.32386161      64.32386161      64.32386161      64.32386161      64.32386161      64.32386161
        63.71425614      63.71425614      63.71425614      63.71425614      63.71425614      63.71425614      63.71425614      63.71425614      63.71425614      63.71425614      63.71425614      63.71425614      63.71425614      63.71425614      63.71425614
        63.10465067      63.10465067      63.10465067      63.10465067      63.10465067      63.10465067      63.10465067      63.10465067      63.10465067      63.10465067      63.10465067      63.10465067      63.10465067      63.10465067      63.10465067
        62.49504520      62.49504520      62.49504520      62.49504520      62.49504520      62.49504520      62.49504520      62.49504520      62.49504520      62.49504520      62.49504520      62.49504520      62.49504520      62.49504520      62.49504520
        61.88543973      61.88543973      61.88543973      61.88543973      61.88543973      61.88543973      61.88543973      61.88543973      61.88543973      61.88543973      61.88543973      61.88543973      61.88543973      61.88543973      61.88543973
        61.27583427      61.27583427      61.27583427      61.27583427      61.27583427      61.27583427      61.27583427      61.27583427      61.27583427      61.27583427      61.27583427      61.27583427      61.27583427      61.27583427      61.27583427
        60.66622880      60.66622880      60.66622880      60.66622880      60.66622880      60.66622880      60.66622880      60.66622880      60.66622880      60.66622880      60.66622880      60.66622880      60.66622880      60.66622880      60.66622880
        60.05662333      60.05662333      60.05662333      60.05662333      60.05662333      60.05662333      60.05662333      60.05662333      60.05662333      60.05662333      60.05662333      60.05662333      60.05662333      60.05662333      60.05662333
        59.44701786      59.44701786      59.44701786      59.44701786      59.44701786      59.44701786      59.44701786      59.44701786      59.44701786      59.44701786      59.44701786      59.44701786      59.44701786      59.44701786      59.44701786
        58.83741239      58.83741239      58.83741239      58.83741239      58.83741239      58.83741239      58.83741239      58.83741239      58.83741239      58.83741239      58.83741239      58.83741239      58.83741239      58.83741239      58.83741239
        58.22780692      58.22780692      58.22780692      58.22780692      58.22780692      58.22780692      58.22780692      58.22780692      58.22780692      58.22780692      58.22780692      58.22780692      58.22780692      58.22780692      58.22780692
        57.61820145      57.61820145      57.61820145      57.61820145      57.61820145      57.61820145      57.61820145      57.61820145      57.61820145      57.61820145      57.61820145      57.61820145      57.61820145      57.61820145      57.61820145
        57.00859598      57.00859598      57.00859598      57.00859598      57.00859598      57.00859598      57.00859598      57.00859598      57.00859598      57.00859598      57.00859598      57.00859598      57.00859598      57.00859598      57.00859598
        56.39899052      56.39899052      56.39899052      56.39899052      56.39899052      56.39899052      56.39899052      56.39899052      56.39899052      56.39899052      56.39899052      56.39899052      56.39899052      56.39899052      56.39899052
        55.78938505      55.78938505      55.78938505      55.78938505      55.78938505      55.78938505      55.78938505      55.78938505      55.78938505      55.78938505      55.78938505      55.78938505      55.78938505      55.78938505      55.78938505
        55.17977958      55.17977958      55.17977958      55.17977958      55.17977958      55.17977958      55.17977958      55.17977958      55.17977958      55.17977958      55.17977958      55.17977958      55.17977958      55.17977958      55.17977958
        54.57017411      54.57017411      54.57017411      54.57017411      54.57017411      54.57017411      54.57017411      54.57017411      54.57017411      54.57017411      54.57017411      54.57017411      54.57017411      54.57017411      54.57017411
        53.96056864      53.96056864      53.96056864      53.96056864      53.96056864      53.96056864      53.96056864      53.96056864      53.96056864      53.96056864      53.96056864      53.96056864      53.96056864      53.96056864      53.96056864
        53.35096317      53.35096317      53.35096317      53.35096317      53.35096317      53.35096317      53.35096317      53.35096317      53.35096317      53.35096317      53.35096317      53.35096317      53.35096317      53.35096317      53.35096317
        52.74135770      52.74135770      52.74135770      52.74135770      52.74135770      52.74135770      52.74135770      52.74135770      52.74135770      52.74135770      52.74135770      52.74135770      52.74135770      52.74135770      52.74135770
        52.13175223      52.13175223      52.13175223      52.13175223      52.13175223      52.13175223      52.13175223      52.13175223      52.13175223      52.13175223      52.13175223      52.13175223      52.13175223      52.13175223      52.13175223
        51.52214677      51.52214677      51.52214677      51.52214677      51.52214677      51.52214677      51.52214677      51.52214677      51.52214677      51.52214677      51.52214677      51.52214677      51.52214677      51.52214677      51.52214677
        50.91254130      50.91254130      50.91254130      50.91254130      50.91254130      50.91254130      50.91254130      50.91254130      50.91254130      50.91254130      50.91254130      50.91254130      50.91254130      50.91254130      50.91254130
        50.30293583      50.30293583      50.30293583      50.30293583      50.30293583      50.30293583      50.30293583      50.30293583      50.30293583      50.30293583      50.30293583      50.30293583      50.30293583      50.30293583      50.30293583
        49.69333036      49.69333036      49.69333036      49.69333036      49.69333036      49.69333036      49.69333036      49.69333036      49.69333036      49.69333036      49.69333036      49.69333036      49.69333036      49.69333036      49.69333036
        49.08372489      49.08372489      49.08372489      49.08372489      49.08372489      49.08372489      49.08372489      49.08372489      49.08372489      49.08372489      49.08372489      49.08372489      49.08372489      49.08372489      49.08372489
        48.47411942      48.47411942      48.47411942      48.47411942      48.47411942      48.47411942      48.47411942      48.47411942      48.47411942      48.47411942      48.47411942      48.47411942      48.47411942      48.47411942      48.47411942
        47.86451395      47.86451395      47.86451395      47.86451395      47.86451395      47.86451395      47.86451395      47.86451395      47.86451395      47.86451395      47.86451395      47.86451395      47.86451395      47.86451395      47.86451395
        47.25490848      47.25490848      47.25490848      47.25490848      47.25490848      47.25490848      47.25490848      47.25490848      47.25490848      47.25490848      47.25490848      47.25490848      47.25490848      47.25490848      47.25490848
        46.64530302      46.64530302      46.64530302      46.64530302      46.64530302      46.64530302      46.64530302      46.64530302      46.64530302      46.64530302      46.64530302      46.64530302      46.64530302      46.64530302      46.64530302
        46.03569755      46.03569755      46.03569755      46.03569755      46.03569755      46.03569755      46.03569755      46.03569755      46.03569755      46.03569755      46.03569755      46.03569755      46.03569755      46.03569755      46.03569755
        45.42609208      45.42609208      45.42609208      45.42609208      45.42609208      45.42609208      45.42609208      45.42609208      45.42609208      45.42609208      45.42609208      45.42609208      45.42609208      45.42609208      45.42609208
        44.81648661      44.81648661      44.81648661      44.81648661      44.81648661      44.81648661      44.81648661      44.81648661      44.81648661      44.81648661      44.81648661      44.81648661      44.81648661      44.81648661      44.81648661
        44.20688114      44.20688114      44.20688114      44.20688114      44.20688114      44.20688114      44.20688114      44.20688114      44.20688114      44.20688114      44.20688114      44.20688114      44.20688114      44.20688114      44.20688114
        43.59727567      43.59727567      43.59727567      43.59727567      43.59727567      43.59727567      43.59727567      43.59727567      43.59727567      43.59727567      43.59727567      43.59727567      43.59727567      43.59727567      43.59727567
        42.98767020      42.98767020      42.98767020      42.98767020      42.98767020      42.98767020      42.98767020      42.98767020      42.98767020      42.98767020      42.98767020      42.98767020      42.98767020      42.98767020      42.98767020
        42.37806473      42.37806473      42.37806473      42.37806473      42.37806473      42.37806473      42.37806473      42.37806473      42.37806473      42.37806473      42.37806473      42.37806473      42.37806473      42.37806473      42.37806473
        41.76845927      41.76845927      41.76845927      41.76845927      41.76845927      41.76845927      41.76845927      41.76845927      41.76845927      41.76845927      41.76845927      41.76845927      41.76845927      41.76845927      41.76845927
        41.15885380      41.15885380      41.15885380      41.15885380      41.15885380      41.15885380      41.15885380      41.15885380      41.15885380      41.15885380      41.15885380      41.15885380      41.15885380      41.15885380      41.15885380
        40.54924833      40.54924833      40.54924833      40.54924833      40.54924833      40.54924833      40.54924833      40.54924833      40.54924833      40.54924833      40.54924833      40.54924833      40.54924833      40.54924833      40.54924833
        39.93964286      39.93964286      39.93964286      39.93964286      39.93964286      39.93964286      39.93964286      39.93964286      39.93964286      39.93964286      39.93964286      39.93964286      39.93964286      39.93964286      39.93964286
        39.33003739      39.33003739      39.33003739      39.33003739      39.33003739      39.33003739      39.33003739      39.33003739      39.33003739      39.33003739      39.33003739      39.33003739      39.33003739      39.33003739      39.33003739
        38.72043192      38.72043192      38.72043192      38.72043192      38.72043192      38.72043192      38.72043192      38.72043192      38.72043192      38.72043192      38.72043192      38.72043192      38.72043192      38.72043192      38.72043192
        38.11082645      38.11082645      38.11082645      38.11082645      38.11082645      38.11082645      38.11082645      38.11082645      38.11082645      38.11082645      38.11082645      38.11082645      38.11082645      38.11082645      38.11082645
        37.50122098      37.50122098      37.50122098      37.50122098      37.50122098      37.50122098      37.50122098      37.50122098      37.50122098      37.50122098      37.50122098      37.50122098      37.50122098      37.50122098      37.50122098
        36.89161552      36.89161552      36.89161552      36.89161552      36.89161552      36.89161552      36.89161552      36.89161552      36.89161552      36.89161552      36.89161552      36.89161552      36.89161552      36.89161552      36.89161552
        36.28201005      36.28201005      36.28201005      36.28201005      36.28201005      36.28201005      36.28201005      36.28201005      36.28201005      36.28201005      36.28201005      36.28201005      36.28201005      36.28201005      36.28201005
        35.67240458      35.67240458      35.67240458      35.67240458      35.67240458      35.67240458      35.67240458      35.67240458      35.67240458      35.67240458      35.67240458      35.67240458      35.67240458      35.67240458      35.67240458
        35.06279911      35.06279911      35.06279911      35.06279911      35.06279911      35.06279911      35.06279911      35.06279911      35.06279911      35.06279911      35.06279911      35.06279911      35.06279911      35.06279911      35.06279911
        34.45319364      34.45319364      34.45319364      34.45319364      34.45319364      34.45319364      34.45319364      34.45319364      34.45319364      34.45319364      34.45319364      34.45319364      34.45319364      34.45319364      34.45319364
        33.84358817      33.84358817      33.84358817      33.84358817      33.84358817      33.84358817      33.84358817      33.84358817      33.84358817      33.84358817      33.84358817      33.84358817      33.84358817      33.84358817      33.84358817
        33.23398270      33.23398270      33.23398270      33.23398270      33.23398270      33.23398270      33.23398270      33.23398270      33.23398270      33.23398270      33.23398270      33.23398270      33.23398270      33.23398270      33.23398270
        32.62437723      32.62437723      32.62437723      32.62437723      32.62437723      32.62437723      32.62437723      32.62437723      32.62437723      32.62437723      32.62437723      32.62437723      32.62437723      32.62437723      32.62437723
        32.01477177      32.01477177      32.01477177      32.01477177      32.01477177      32.01477177      32.01477177      32.01477177      32.01477177      32.01477177      32.01477177      32.01477177      32.01477177      32.01477177      32.01477177
        31.40516630      31.40516630      31.40516630      31.40516630      31.40516630      31.40516630      31.40516630      31.40516630      31.40516630      31.40516630      31.40516630      31.40516630      31.40516630      31.40516630      31.40516630
        30.79556083      30.79556083      30.79556083      30.79556083      30.79556083      30.79556083      30.79556083      30.79556083      30.79556083      30.79556083      30.79556083      30.79556083      30.79556083      30.79556083      30.79556083
        30.18595536      30.18595536      30.18595536      30.18595536      30.18595536      30.18595536      30.18595536      30.18595536      30.18595536      30.18595536      30.18595536      30.18595536      30.18595536      30.18595536      30.18595536
        29.57634989      29.57634989      29.57634989      29.57634989      29.57634989      29.57634989      29.57634989      29.57634989      29.57634989      29.57634989      29.57634989      29.57634989      29.57634989      29.57634989      29.57634989
        28.96674442      28.96674442      28.96674442      28.96674442      28.96674442      28.96674442      28.96674442      28.96674442      28.96674442      28.96674442      28.96674442      28.96674442      28.96674442      28.96674442      28.96674442
        28.35713895      28.35713895      28.35713895      28.35713895      28.35713895      28.35713895      28.35713895      28.35713895      28.35713895      28.35713895      28.35713895      28.35713895      28.35713895      28.35713895      28.35713895
        27.74753348      27.74753348      27.74753348      27.74753348      27.74753348      27.74753348      27.74753348      27.74753348      27.74753348      27.74753348      27.74753348      27.74753348      27.74753348      27.74753348      27.74753348
END griddata

