# File generated by Flopy version 3.10.0.dev2 on 05/09/2025 at 15:29:25.
BEGIN options
END options

BEGIN timing
  TDIS6  ex-gwf-sfr-psa.tdis
END timing

BEGIN models
  gwf6  ex-gwf-sfr-psa.nam  ex-gwf-sfr-psa
END models

BEGIN exchanges
END exchanges

BEGIN solutiongroup  1
  ims6  ex-gwf-sfr-psa.ims  ex-gwf-sfr-psa
END solutiongroup  1

