# File generated by Flopy version 3.10.0.dev2 on 05/09/2025 at 15:28:06.
BEGIN options
END options

BEGIN timing
  TDIS6  ex-gwf-nwt-p03.tdis
END timing

BEGIN models
  gwf6  ex-gwf-nwt-p03.nam  ex-gwf-nwt-p03
END models

BEGIN exchanges
END exchanges

BEGIN solutiongroup  1
  ims6  ex-gwf-nwt-p03.ims  ex-gwf-nwt-p03
END solutiongroup  1

