# File generated by Flopy version 3.10.0.dev2 on 05/09/2025 at 15:28:23.
BEGIN options
END options

BEGIN dimensions
  MAXBOUND  2
END dimensions

BEGIN period  1
  1 1 1 6.00000000E+01
  1 1 101 0.00000000E+00
END period  1

