# File generated by Flopy version 3.10.0.dev2 on 05/09/2025 at 15:28:30.
BEGIN options
  auxiliary  CONCENTRATION
  PRINT_INPUT
  PRINT_FLOWS
END options

BEGIN dimensions
  MAXBOUND  1
END dimensions

BEGIN period  1
  7 8 3 5.00000000E-01 1.00000000E+02
END period  1

