# File generated by Flopy version 3.10.0.dev2 on 05/09/2025 at 15:28:30.
BEGIN options
  auxiliary  CONCENTRATION
END options

BEGIN dimensions
  MAXBOUND  240
END dimensions

BEGIN period  1
  1 1 1 1.33333333E+01 0.00000000E+00
  1 1 21 0.00000000E+00 0.00000000E+00
  1 2 1 1.33333333E+01 0.00000000E+00
  1 2 21 0.00000000E+00 0.00000000E+00
  1 3 1 1.33333333E+01 0.00000000E+00
  1 3 21 0.00000000E+00 0.00000000E+00
  1 4 1 1.33333333E+01 0.00000000E+00
  1 4 21 0.00000000E+00 0.00000000E+00
  1 5 1 1.33333333E+01 0.00000000E+00
  1 5 21 0.00000000E+00 0.00000000E+00
  1 6 1 1.33333333E+01 0.00000000E+00
  1 6 21 0.00000000E+00 0.00000000E+00
  1 7 1 1.33333333E+01 0.00000000E+00
  1 7 21 0.00000000E+00 0.00000000E+00
  1 8 1 1.33333333E+01 0.00000000E+00
  1 8 21 0.00000000E+00 0.00000000E+00
  1 9 1 1.33333333E+01 0.00000000E+00
  1 9 21 0.00000000E+00 0.00000000E+00
  1 10 1 1.33333333E+01 0.00000000E+00
  1 10 21 0.00000000E+00 0.00000000E+00
  1 11 1 1.33333333E+01 0.00000000E+00
  1 11 21 0.00000000E+00 0.00000000E+00
  1 12 1 1.33333333E+01 0.00000000E+00
  1 12 21 0.00000000E+00 0.00000000E+00
  1 13 1 1.33333333E+01 0.00000000E+00
  1 13 21 0.00000000E+00 0.00000000E+00
  1 14 1 1.33333333E+01 0.00000000E+00
  1 14 21 0.00000000E+00 0.00000000E+00
  1 15 1 1.33333333E+01 0.00000000E+00
  1 15 21 0.00000000E+00 0.00000000E+00
  2 1 1 1.33333333E+01 0.00000000E+00
  2 1 21 0.00000000E+00 0.00000000E+00
  2 2 1 1.33333333E+01 0.00000000E+00
  2 2 21 0.00000000E+00 0.00000000E+00
  2 3 1 1.33333333E+01 0.00000000E+00
  2 3 21 0.00000000E+00 0.00000000E+00
  2 4 1 1.33333333E+01 0.00000000E+00
  2 4 21 0.00000000E+00 0.00000000E+00
  2 5 1 1.33333333E+01 0.00000000E+00
  2 5 21 0.00000000E+00 0.00000000E+00
  2 6 1 1.33333333E+01 0.00000000E+00
  2 6 21 0.00000000E+00 0.00000000E+00
  2 7 1 1.33333333E+01 0.00000000E+00
  2 7 21 0.00000000E+00 0.00000000E+00
  2 8 1 1.33333333E+01 0.00000000E+00
  2 8 21 0.00000000E+00 0.00000000E+00
  2 9 1 1.33333333E+01 0.00000000E+00
  2 9 21 0.00000000E+00 0.00000000E+00
  2 10 1 1.33333333E+01 0.00000000E+00
  2 10 21 0.00000000E+00 0.00000000E+00
  2 11 1 1.33333333E+01 0.00000000E+00
  2 11 21 0.00000000E+00 0.00000000E+00
  2 12 1 1.33333333E+01 0.00000000E+00
  2 12 21 0.00000000E+00 0.00000000E+00
  2 13 1 1.33333333E+01 0.00000000E+00
  2 13 21 0.00000000E+00 0.00000000E+00
  2 14 1 1.33333333E+01 0.00000000E+00
  2 14 21 0.00000000E+00 0.00000000E+00
  2 15 1 1.33333333E+01 0.00000000E+00
  2 15 21 0.00000000E+00 0.00000000E+00
  3 1 1 1.33333333E+01 0.00000000E+00
  3 1 21 0.00000000E+00 0.00000000E+00
  3 2 1 1.33333333E+01 0.00000000E+00
  3 2 21 0.00000000E+00 0.00000000E+00
  3 3 1 1.33333333E+01 0.00000000E+00
  3 3 21 0.00000000E+00 0.00000000E+00
  3 4 1 1.33333333E+01 0.00000000E+00
  3 4 21 0.00000000E+00 0.00000000E+00
  3 5 1 1.33333333E+01 0.00000000E+00
  3 5 21 0.00000000E+00 0.00000000E+00
  3 6 1 1.33333333E+01 0.00000000E+00
  3 6 21 0.00000000E+00 0.00000000E+00
  3 7 1 1.33333333E+01 0.00000000E+00
  3 7 21 0.00000000E+00 0.00000000E+00
  3 8 1 1.33333333E+01 0.00000000E+00
  3 8 21 0.00000000E+00 0.00000000E+00
  3 9 1 1.33333333E+01 0.00000000E+00
  3 9 21 0.00000000E+00 0.00000000E+00
  3 10 1 1.33333333E+01 0.00000000E+00
  3 10 21 0.00000000E+00 0.00000000E+00
  3 11 1 1.33333333E+01 0.00000000E+00
  3 11 21 0.00000000E+00 0.00000000E+00
  3 12 1 1.33333333E+01 0.00000000E+00
  3 12 21 0.00000000E+00 0.00000000E+00
  3 13 1 1.33333333E+01 0.00000000E+00
  3 13 21 0.00000000E+00 0.00000000E+00
  3 14 1 1.33333333E+01 0.00000000E+00
  3 14 21 0.00000000E+00 0.00000000E+00
  3 15 1 1.33333333E+01 0.00000000E+00
  3 15 21 0.00000000E+00 0.00000000E+00
  4 1 1 1.33333333E+01 0.00000000E+00
  4 1 21 0.00000000E+00 0.00000000E+00
  4 2 1 1.33333333E+01 0.00000000E+00
  4 2 21 0.00000000E+00 0.00000000E+00
  4 3 1 1.33333333E+01 0.00000000E+00
  4 3 21 0.00000000E+00 0.00000000E+00
  4 4 1 1.33333333E+01 0.00000000E+00
  4 4 21 0.00000000E+00 0.00000000E+00
  4 5 1 1.33333333E+01 0.00000000E+00
  4 5 21 0.00000000E+00 0.00000000E+00
  4 6 1 1.33333333E+01 0.00000000E+00
  4 6 21 0.00000000E+00 0.00000000E+00
  4 7 1 1.33333333E+01 0.00000000E+00
  4 7 21 0.00000000E+00 0.00000000E+00
  4 8 1 1.33333333E+01 0.00000000E+00
  4 8 21 0.00000000E+00 0.00000000E+00
  4 9 1 1.33333333E+01 0.00000000E+00
  4 9 21 0.00000000E+00 0.00000000E+00
  4 10 1 1.33333333E+01 0.00000000E+00
  4 10 21 0.00000000E+00 0.00000000E+00
  4 11 1 1.33333333E+01 0.00000000E+00
  4 11 21 0.00000000E+00 0.00000000E+00
  4 12 1 1.33333333E+01 0.00000000E+00
  4 12 21 0.00000000E+00 0.00000000E+00
  4 13 1 1.33333333E+01 0.00000000E+00
  4 13 21 0.00000000E+00 0.00000000E+00
  4 14 1 1.33333333E+01 0.00000000E+00
  4 14 21 0.00000000E+00 0.00000000E+00
  4 15 1 1.33333333E+01 0.00000000E+00
  4 15 21 0.00000000E+00 0.00000000E+00
  5 1 1 1.33333333E+01 0.00000000E+00
  5 1 21 0.00000000E+00 0.00000000E+00
  5 2 1 1.33333333E+01 0.00000000E+00
  5 2 21 0.00000000E+00 0.00000000E+00
  5 3 1 1.33333333E+01 0.00000000E+00
  5 3 21 0.00000000E+00 0.00000000E+00
  5 4 1 1.33333333E+01 0.00000000E+00
  5 4 21 0.00000000E+00 0.00000000E+00
  5 5 1 1.33333333E+01 0.00000000E+00
  5 5 21 0.00000000E+00 0.00000000E+00
  5 6 1 1.33333333E+01 0.00000000E+00
  5 6 21 0.00000000E+00 0.00000000E+00
  5 7 1 1.33333333E+01 0.00000000E+00
  5 7 21 0.00000000E+00 0.00000000E+00
  5 8 1 1.33333333E+01 0.00000000E+00
  5 8 21 0.00000000E+00 0.00000000E+00
  5 9 1 1.33333333E+01 0.00000000E+00
  5 9 21 0.00000000E+00 0.00000000E+00
  5 10 1 1.33333333E+01 0.00000000E+00
  5 10 21 0.00000000E+00 0.00000000E+00
  5 11 1 1.33333333E+01 0.00000000E+00
  5 11 21 0.00000000E+00 0.00000000E+00
  5 12 1 1.33333333E+01 0.00000000E+00
  5 12 21 0.00000000E+00 0.00000000E+00
  5 13 1 1.33333333E+01 0.00000000E+00
  5 13 21 0.00000000E+00 0.00000000E+00
  5 14 1 1.33333333E+01 0.00000000E+00
  5 14 21 0.00000000E+00 0.00000000E+00
  5 15 1 1.33333333E+01 0.00000000E+00
  5 15 21 0.00000000E+00 0.00000000E+00
  6 1 1 1.33333333E+01 0.00000000E+00
  6 1 21 0.00000000E+00 0.00000000E+00
  6 2 1 1.33333333E+01 0.00000000E+00
  6 2 21 0.00000000E+00 0.00000000E+00
  6 3 1 1.33333333E+01 0.00000000E+00
  6 3 21 0.00000000E+00 0.00000000E+00
  6 4 1 1.33333333E+01 0.00000000E+00
  6 4 21 0.00000000E+00 0.00000000E+00
  6 5 1 1.33333333E+01 0.00000000E+00
  6 5 21 0.00000000E+00 0.00000000E+00
  6 6 1 1.33333333E+01 0.00000000E+00
  6 6 21 0.00000000E+00 0.00000000E+00
  6 7 1 1.33333333E+01 0.00000000E+00
  6 7 21 0.00000000E+00 0.00000000E+00
  6 8 1 1.33333333E+01 0.00000000E+00
  6 8 21 0.00000000E+00 0.00000000E+00
  6 9 1 1.33333333E+01 0.00000000E+00
  6 9 21 0.00000000E+00 0.00000000E+00
  6 10 1 1.33333333E+01 0.00000000E+00
  6 10 21 0.00000000E+00 0.00000000E+00
  6 11 1 1.33333333E+01 0.00000000E+00
  6 11 21 0.00000000E+00 0.00000000E+00
  6 12 1 1.33333333E+01 0.00000000E+00
  6 12 21 0.00000000E+00 0.00000000E+00
  6 13 1 1.33333333E+01 0.00000000E+00
  6 13 21 0.00000000E+00 0.00000000E+00
  6 14 1 1.33333333E+01 0.00000000E+00
  6 14 21 0.00000000E+00 0.00000000E+00
  6 15 1 1.33333333E+01 0.00000000E+00
  6 15 21 0.00000000E+00 0.00000000E+00
  7 1 1 1.33333333E+01 0.00000000E+00
  7 1 21 0.00000000E+00 0.00000000E+00
  7 2 1 1.33333333E+01 0.00000000E+00
  7 2 21 0.00000000E+00 0.00000000E+00
  7 3 1 1.33333333E+01 0.00000000E+00
  7 3 21 0.00000000E+00 0.00000000E+00
  7 4 1 1.33333333E+01 0.00000000E+00
  7 4 21 0.00000000E+00 0.00000000E+00
  7 5 1 1.33333333E+01 0.00000000E+00
  7 5 21 0.00000000E+00 0.00000000E+00
  7 6 1 1.33333333E+01 0.00000000E+00
  7 6 21 0.00000000E+00 0.00000000E+00
  7 7 1 1.33333333E+01 0.00000000E+00
  7 7 21 0.00000000E+00 0.00000000E+00
  7 8 1 1.33333333E+01 0.00000000E+00
  7 8 21 0.00000000E+00 0.00000000E+00
  7 9 1 1.33333333E+01 0.00000000E+00
  7 9 21 0.00000000E+00 0.00000000E+00
  7 10 1 1.33333333E+01 0.00000000E+00
  7 10 21 0.00000000E+00 0.00000000E+00
  7 11 1 1.33333333E+01 0.00000000E+00
  7 11 21 0.00000000E+00 0.00000000E+00
  7 12 1 1.33333333E+01 0.00000000E+00
  7 12 21 0.00000000E+00 0.00000000E+00
  7 13 1 1.33333333E+01 0.00000000E+00
  7 13 21 0.00000000E+00 0.00000000E+00
  7 14 1 1.33333333E+01 0.00000000E+00
  7 14 21 0.00000000E+00 0.00000000E+00
  7 15 1 1.33333333E+01 0.00000000E+00
  7 15 21 0.00000000E+00 0.00000000E+00
  8 1 1 1.33333333E+01 0.00000000E+00
  8 1 21 0.00000000E+00 0.00000000E+00
  8 2 1 1.33333333E+01 0.00000000E+00
  8 2 21 0.00000000E+00 0.00000000E+00
  8 3 1 1.33333333E+01 0.00000000E+00
  8 3 21 0.00000000E+00 0.00000000E+00
  8 4 1 1.33333333E+01 0.00000000E+00
  8 4 21 0.00000000E+00 0.00000000E+00
  8 5 1 1.33333333E+01 0.00000000E+00
  8 5 21 0.00000000E+00 0.00000000E+00
  8 6 1 1.33333333E+01 0.00000000E+00
  8 6 21 0.00000000E+00 0.00000000E+00
  8 7 1 1.33333333E+01 0.00000000E+00
  8 7 21 0.00000000E+00 0.00000000E+00
  8 8 1 1.33333333E+01 0.00000000E+00
  8 8 21 0.00000000E+00 0.00000000E+00
  8 9 1 1.33333333E+01 0.00000000E+00
  8 9 21 0.00000000E+00 0.00000000E+00
  8 10 1 1.33333333E+01 0.00000000E+00
  8 10 21 0.00000000E+00 0.00000000E+00
  8 11 1 1.33333333E+01 0.00000000E+00
  8 11 21 0.00000000E+00 0.00000000E+00
  8 12 1 1.33333333E+01 0.00000000E+00
  8 12 21 0.00000000E+00 0.00000000E+00
  8 13 1 1.33333333E+01 0.00000000E+00
  8 13 21 0.00000000E+00 0.00000000E+00
  8 14 1 1.33333333E+01 0.00000000E+00
  8 14 21 0.00000000E+00 0.00000000E+00
  8 15 1 1.33333333E+01 0.00000000E+00
  8 15 21 0.00000000E+00 0.00000000E+00
END period  1

