# File generated by Flopy version 3.10.0.dev2 on 05/09/2025 at 15:28:30.
BEGIN options
END options

BEGIN griddata
  alh
    CONSTANT      10.00000000
  ath1
    CONSTANT       3.00000000
  atv
    CONSTANT       3.00000000
END griddata

