# File generated by Flopy version 3.10.0.dev2 on 05/09/2025 at 15:28:08.
BEGIN options
  SAVE_FLOWS
END options

BEGIN packages
  DISV6  ex-gwf-u1disv.disv  disv
  NPF6  ex-gwf-u1disv.npf  npf
  IC6  ex-gwf-u1disv.ic  ic
  CHD6  ex-gwf-u1disv.left.chd  chd-left
  CHD6  ex-gwf-u1disv.right.chd  chd-right
  OC6  ex-gwf-u1disv.oc  oc
END packages

