# File generated by Flopy version 3.10.0.dev2 on 05/09/2025 at 15:27:34.
BEGIN options
  SAVE_FLOWS
END options

BEGIN packages
  DIS6  ex-gwf-bcf2ss.dis  dis
  NPF6  ex-gwf-bcf2ss.npf  npf
  IC6  ex-gwf-bcf2ss.ic  ic
  RIV6  ex-gwf-bcf2ss.riv  riv_0
  WEL6  ex-gwf-bcf2ss.wel  wel_0
  RCH6  ex-gwf-bcf2ss.rcha  rcha_0
  OC6  ex-gwf-bcf2ss.oc  oc
END packages

