# File generated by Flopy version 3.10.0.dev2 on 05/09/2025 at 15:28:08.
BEGIN options
END options

BEGIN continuous  FILEOUT  ex-gwf-rad-disu.obs.head.csv
  h_top  head  12
  h_mid  head  276
  h_bot  head  540
END continuous  FILEOUT  ex-gwf-rad-disu.obs.head.csv

