# File generated by Flopy version 3.10.0.dev2 on 05/09/2025 at 15:28:08.
BEGIN options
  BUDGET  FILEOUT  ex-gwf-rad-disu.cbc
  HEAD  FILEOUT  ex-gwf-rad-disu.hds
  HEAD  PRINT_FORMAT  COLUMNS  22  WIDTH  15  DIGITS  6  GENERAL
END options

BEGIN period  1
  SAVE  HEAD  ALL
  SAVE  BUDGET  ALL
  PRINT  HEAD  ALL
  PRINT  BUDGET  ALL
END period  1

