# File generated by Flopy version 3.10.0.dev2 on 05/09/2025 at 15:28:08.
BEGIN options
  SAVE_FLOWS
END options

BEGIN dimensions
  MAXBOUND  5
END dimensions

BEGIN period  1
  441 -8.00000000E+02
  463 -8.00000000E+02
  485 -8.00000000E+02
  507 -8.00000000E+02
  529 -8.00000000E+02
END period  1

