# File generated by Flopy version 3.10.0.dev2 on 05/09/2025 at 15:28:08.
BEGIN options
  LENGTH_UNITS  feet
  VERTICAL_OFFSET_TOLERANCE       0.00000000
END options

BEGIN dimensions
  NODES  550
  NJA  2656
  NVERT  45
END dimensions

BEGIN griddata
  top
    INTERNAL  FACTOR  1.0
        50.00000000      50.00000000      50.00000000      50.00000000      50.00000000      50.00000000      50.00000000      50.00000000      50.00000000      50.00000000      50.00000000      50.00000000      50.00000000      50.00000000      50.00000000      50.00000000      50.00000000      50.00000000      50.00000000      50.00000000
        50.00000000      50.00000000      48.00000000      48.00000000      48.00000000      48.00000000      48.00000000      48.00000000      48.00000000      48.00000000      48.00000000      48.00000000      48.00000000      48.00000000      48.00000000      48.00000000      48.00000000      48.00000000      48.00000000      48.00000000
        48.00000000      48.00000000      48.00000000      48.00000000      46.00000000      46.00000000      46.00000000      46.00000000      46.00000000      46.00000000      46.00000000      46.00000000      46.00000000      46.00000000      46.00000000      46.00000000      46.00000000      46.00000000      46.00000000      46.00000000
        46.00000000      46.00000000      46.00000000      46.00000000      46.00000000      46.00000000      44.00000000      44.00000000      44.00000000      44.00000000      44.00000000      44.00000000      44.00000000      44.00000000      44.00000000      44.00000000      44.00000000      44.00000000      44.00000000      44.00000000
        44.00000000      44.00000000      44.00000000      44.00000000      44.00000000      44.00000000      44.00000000      44.00000000      42.00000000      42.00000000      42.00000000      42.00000000      42.00000000      42.00000000      42.00000000      42.00000000      42.00000000      42.00000000      42.00000000      42.00000000
        42.00000000      42.00000000      42.00000000      42.00000000      42.00000000      42.00000000      42.00000000      42.00000000      42.00000000      42.00000000      40.00000000      40.00000000      40.00000000      40.00000000      40.00000000      40.00000000      40.00000000      40.00000000      40.00000000      40.00000000
        40.00000000      40.00000000      40.00000000      40.00000000      40.00000000      40.00000000      40.00000000      40.00000000      40.00000000      40.00000000      40.00000000      40.00000000      38.00000000      38.00000000      38.00000000      38.00000000      38.00000000      38.00000000      38.00000000      38.00000000
        38.00000000      38.00000000      38.00000000      38.00000000      38.00000000      38.00000000      38.00000000      38.00000000      38.00000000      38.00000000      38.00000000      38.00000000      38.00000000      38.00000000      36.00000000      36.00000000      36.00000000      36.00000000      36.00000000      36.00000000
        36.00000000      36.00000000      36.00000000      36.00000000      36.00000000      36.00000000      36.00000000      36.00000000      36.00000000      36.00000000      36.00000000      36.00000000      36.00000000      36.00000000      36.00000000      36.00000000      34.00000000      34.00000000      34.00000000      34.00000000
        34.00000000      34.00000000      34.00000000      34.00000000      34.00000000      34.00000000      34.00000000      34.00000000      34.00000000      34.00000000      34.00000000      34.00000000      34.00000000      34.00000000      34.00000000      34.00000000      34.00000000      34.00000000      32.00000000      32.00000000
        32.00000000      32.00000000      32.00000000      32.00000000      32.00000000      32.00000000      32.00000000      32.00000000      32.00000000      32.00000000      32.00000000      32.00000000      32.00000000      32.00000000      32.00000000      32.00000000      32.00000000      32.00000000      32.00000000      32.00000000
        30.00000000      30.00000000      30.00000000      30.00000000      30.00000000      30.00000000      30.00000000      30.00000000      30.00000000      30.00000000      30.00000000      30.00000000      30.00000000      30.00000000      30.00000000      30.00000000      30.00000000      30.00000000      30.00000000      30.00000000
        30.00000000      30.00000000      28.00000000      28.00000000      28.00000000      28.00000000      28.00000000      28.00000000      28.00000000      28.00000000      28.00000000      28.00000000      28.00000000      28.00000000      28.00000000      28.00000000      28.00000000      28.00000000      28.00000000      28.00000000
        28.00000000      28.00000000      28.00000000      28.00000000      26.00000000      26.00000000      26.00000000      26.00000000      26.00000000      26.00000000      26.00000000      26.00000000      26.00000000      26.00000000      26.00000000      26.00000000      26.00000000      26.00000000      26.00000000      26.00000000
        26.00000000      26.00000000      26.00000000      26.00000000      26.00000000      26.00000000      24.00000000      24.00000000      24.00000000      24.00000000      24.00000000      24.00000000      24.00000000      24.00000000      24.00000000      24.00000000      24.00000000      24.00000000      24.00000000      24.00000000
        24.00000000      24.00000000      24.00000000      24.00000000      24.00000000      24.00000000      24.00000000      24.00000000      22.00000000      22.00000000      22.00000000      22.00000000      22.00000000      22.00000000      22.00000000      22.00000000      22.00000000      22.00000000      22.00000000      22.00000000
        22.00000000      22.00000000      22.00000000      22.00000000      22.00000000      22.00000000      22.00000000      22.00000000      22.00000000      22.00000000      20.00000000      20.00000000      20.00000000      20.00000000      20.00000000      20.00000000      20.00000000      20.00000000      20.00000000      20.00000000
        20.00000000      20.00000000      20.00000000      20.00000000      20.00000000      20.00000000      20.00000000      20.00000000      20.00000000      20.00000000      20.00000000      20.00000000      18.00000000      18.00000000      18.00000000      18.00000000      18.00000000      18.00000000      18.00000000      18.00000000
        18.00000000      18.00000000      18.00000000      18.00000000      18.00000000      18.00000000      18.00000000      18.00000000      18.00000000      18.00000000      18.00000000      18.00000000      18.00000000      18.00000000      16.00000000      16.00000000      16.00000000      16.00000000      16.00000000      16.00000000
        16.00000000      16.00000000      16.00000000      16.00000000      16.00000000      16.00000000      16.00000000      16.00000000      16.00000000      16.00000000      16.00000000      16.00000000      16.00000000      16.00000000      16.00000000      16.00000000      14.00000000      14.00000000      14.00000000      14.00000000
        14.00000000      14.00000000      14.00000000      14.00000000      14.00000000      14.00000000      14.00000000      14.00000000      14.00000000      14.00000000      14.00000000      14.00000000      14.00000000      14.00000000      14.00000000      14.00000000      14.00000000      14.00000000      12.00000000      12.00000000
        12.00000000      12.00000000      12.00000000      12.00000000      12.00000000      12.00000000      12.00000000      12.00000000      12.00000000      12.00000000      12.00000000      12.00000000      12.00000000      12.00000000      12.00000000      12.00000000      12.00000000      12.00000000      12.00000000      12.00000000
        10.00000000      10.00000000      10.00000000      10.00000000      10.00000000      10.00000000      10.00000000      10.00000000      10.00000000      10.00000000      10.00000000      10.00000000      10.00000000      10.00000000      10.00000000      10.00000000      10.00000000      10.00000000      10.00000000      10.00000000
        10.00000000      10.00000000       8.00000000       8.00000000       8.00000000       8.00000000       8.00000000       8.00000000       8.00000000       8.00000000       8.00000000       8.00000000       8.00000000       8.00000000       8.00000000       8.00000000       8.00000000       8.00000000       8.00000000       8.00000000
         8.00000000       8.00000000       8.00000000       8.00000000       6.00000000       6.00000000       6.00000000       6.00000000       6.00000000       6.00000000       6.00000000       6.00000000       6.00000000       6.00000000       6.00000000       6.00000000       6.00000000       6.00000000       6.00000000       6.00000000
         6.00000000       6.00000000       6.00000000       6.00000000       6.00000000       6.00000000       4.00000000       4.00000000       4.00000000       4.00000000       4.00000000       4.00000000       4.00000000       4.00000000       4.00000000       4.00000000       4.00000000       4.00000000       4.00000000       4.00000000
         4.00000000       4.00000000       4.00000000       4.00000000       4.00000000       4.00000000       4.00000000       4.00000000       2.00000000       2.00000000       2.00000000       2.00000000       2.00000000       2.00000000       2.00000000       2.00000000       2.00000000       2.00000000       2.00000000       2.00000000
         2.00000000       2.00000000       2.00000000       2.00000000       2.00000000       2.00000000       2.00000000       2.00000000       2.00000000       2.00000000
  bot
    INTERNAL  FACTOR  1.0
        48.00000000      48.00000000      48.00000000      48.00000000      48.00000000      48.00000000      48.00000000      48.00000000      48.00000000      48.00000000      48.00000000      48.00000000      48.00000000      48.00000000      48.00000000      48.00000000      48.00000000      48.00000000      48.00000000      48.00000000
        48.00000000      48.00000000      46.00000000      46.00000000      46.00000000      46.00000000      46.00000000      46.00000000      46.00000000      46.00000000      46.00000000      46.00000000      46.00000000      46.00000000      46.00000000      46.00000000      46.00000000      46.00000000      46.00000000      46.00000000
        46.00000000      46.00000000      46.00000000      46.00000000      44.00000000      44.00000000      44.00000000      44.00000000      44.00000000      44.00000000      44.00000000      44.00000000      44.00000000      44.00000000      44.00000000      44.00000000      44.00000000      44.00000000      44.00000000      44.00000000
        44.00000000      44.00000000      44.00000000      44.00000000      44.00000000      44.00000000      42.00000000      42.00000000      42.00000000      42.00000000      42.00000000      42.00000000      42.00000000      42.00000000      42.00000000      42.00000000      42.00000000      42.00000000      42.00000000      42.00000000
        42.00000000      42.00000000      42.00000000      42.00000000      42.00000000      42.00000000      42.00000000      42.00000000      40.00000000      40.00000000      40.00000000      40.00000000      40.00000000      40.00000000      40.00000000      40.00000000      40.00000000      40.00000000      40.00000000      40.00000000
        40.00000000      40.00000000      40.00000000      40.00000000      40.00000000      40.00000000      40.00000000      40.00000000      40.00000000      40.00000000      38.00000000      38.00000000      38.00000000      38.00000000      38.00000000      38.00000000      38.00000000      38.00000000      38.00000000      38.00000000
        38.00000000      38.00000000      38.00000000      38.00000000      38.00000000      38.00000000      38.00000000      38.00000000      38.00000000      38.00000000      38.00000000      38.00000000      36.00000000      36.00000000      36.00000000      36.00000000      36.00000000      36.00000000      36.00000000      36.00000000
        36.00000000      36.00000000      36.00000000      36.00000000      36.00000000      36.00000000      36.00000000      36.00000000      36.00000000      36.00000000      36.00000000      36.00000000      36.00000000      36.00000000      34.00000000      34.00000000      34.00000000      34.00000000      34.00000000      34.00000000
        34.00000000      34.00000000      34.00000000      34.00000000      34.00000000      34.00000000      34.00000000      34.00000000      34.00000000      34.00000000      34.00000000      34.00000000      34.00000000      34.00000000      34.00000000      34.00000000      32.00000000      32.00000000      32.00000000      32.00000000
        32.00000000      32.00000000      32.00000000      32.00000000      32.00000000      32.00000000      32.00000000      32.00000000      32.00000000      32.00000000      32.00000000      32.00000000      32.00000000      32.00000000      32.00000000      32.00000000      32.00000000      32.00000000      30.00000000      30.00000000
        30.00000000      30.00000000      30.00000000      30.00000000      30.00000000      30.00000000      30.00000000      30.00000000      30.00000000      30.00000000      30.00000000      30.00000000      30.00000000      30.00000000      30.00000000      30.00000000      30.00000000      30.00000000      30.00000000      30.00000000
        28.00000000      28.00000000      28.00000000      28.00000000      28.00000000      28.00000000      28.00000000      28.00000000      28.00000000      28.00000000      28.00000000      28.00000000      28.00000000      28.00000000      28.00000000      28.00000000      28.00000000      28.00000000      28.00000000      28.00000000
        28.00000000      28.00000000      26.00000000      26.00000000      26.00000000      26.00000000      26.00000000      26.00000000      26.00000000      26.00000000      26.00000000      26.00000000      26.00000000      26.00000000      26.00000000      26.00000000      26.00000000      26.00000000      26.00000000      26.00000000
        26.00000000      26.00000000      26.00000000      26.00000000      24.00000000      24.00000000      24.00000000      24.00000000      24.00000000      24.00000000      24.00000000      24.00000000      24.00000000      24.00000000      24.00000000      24.00000000      24.00000000      24.00000000      24.00000000      24.00000000
        24.00000000      24.00000000      24.00000000      24.00000000      24.00000000      24.00000000      22.00000000      22.00000000      22.00000000      22.00000000      22.00000000      22.00000000      22.00000000      22.00000000      22.00000000      22.00000000      22.00000000      22.00000000      22.00000000      22.00000000
        22.00000000      22.00000000      22.00000000      22.00000000      22.00000000      22.00000000      22.00000000      22.00000000      20.00000000      20.00000000      20.00000000      20.00000000      20.00000000      20.00000000      20.00000000      20.00000000      20.00000000      20.00000000      20.00000000      20.00000000
        20.00000000      20.00000000      20.00000000      20.00000000      20.00000000      20.00000000      20.00000000      20.00000000      20.00000000      20.00000000      18.00000000      18.00000000      18.00000000      18.00000000      18.00000000      18.00000000      18.00000000      18.00000000      18.00000000      18.00000000
        18.00000000      18.00000000      18.00000000      18.00000000      18.00000000      18.00000000      18.00000000      18.00000000      18.00000000      18.00000000      18.00000000      18.00000000      16.00000000      16.00000000      16.00000000      16.00000000      16.00000000      16.00000000      16.00000000      16.00000000
        16.00000000      16.00000000      16.00000000      16.00000000      16.00000000      16.00000000      16.00000000      16.00000000      16.00000000      16.00000000      16.00000000      16.00000000      16.00000000      16.00000000      14.00000000      14.00000000      14.00000000      14.00000000      14.00000000      14.00000000
        14.00000000      14.00000000      14.00000000      14.00000000      14.00000000      14.00000000      14.00000000      14.00000000      14.00000000      14.00000000      14.00000000      14.00000000      14.00000000      14.00000000      14.00000000      14.00000000      12.00000000      12.00000000      12.00000000      12.00000000
        12.00000000      12.00000000      12.00000000      12.00000000      12.00000000      12.00000000      12.00000000      12.00000000      12.00000000      12.00000000      12.00000000      12.00000000      12.00000000      12.00000000      12.00000000      12.00000000      12.00000000      12.00000000      10.00000000      10.00000000
        10.00000000      10.00000000      10.00000000      10.00000000      10.00000000      10.00000000      10.00000000      10.00000000      10.00000000      10.00000000      10.00000000      10.00000000      10.00000000      10.00000000      10.00000000      10.00000000      10.00000000      10.00000000      10.00000000      10.00000000
         8.00000000       8.00000000       8.00000000       8.00000000       8.00000000       8.00000000       8.00000000       8.00000000       8.00000000       8.00000000       8.00000000       8.00000000       8.00000000       8.00000000       8.00000000       8.00000000       8.00000000       8.00000000       8.00000000       8.00000000
         8.00000000       8.00000000       6.00000000       6.00000000       6.00000000       6.00000000       6.00000000       6.00000000       6.00000000       6.00000000       6.00000000       6.00000000       6.00000000       6.00000000       6.00000000       6.00000000       6.00000000       6.00000000       6.00000000       6.00000000
         6.00000000       6.00000000       6.00000000       6.00000000       4.00000000       4.00000000       4.00000000       4.00000000       4.00000000       4.00000000       4.00000000       4.00000000       4.00000000       4.00000000       4.00000000       4.00000000       4.00000000       4.00000000       4.00000000       4.00000000
         4.00000000       4.00000000       4.00000000       4.00000000       4.00000000       4.00000000       2.00000000       2.00000000       2.00000000       2.00000000       2.00000000       2.00000000       2.00000000       2.00000000       2.00000000       2.00000000       2.00000000       2.00000000       2.00000000       2.00000000
         2.00000000       2.00000000       2.00000000       2.00000000       2.00000000       2.00000000       2.00000000       2.00000000       0.00000000       0.00000000       0.00000000       0.00000000       0.00000000       0.00000000       0.00000000       0.00000000       0.00000000       0.00000000       0.00000000       0.00000000
         0.00000000       0.00000000       0.00000000       0.00000000       0.00000000       0.00000000       0.00000000       0.00000000       0.00000000       0.00000000
  area
    INTERNAL  FACTOR  1.0
         0.19634954       1.57079633       5.30143760      12.56637061      30.63052837      62.83185307     141.37166941     276.46015352     486.94686131     644.02649399    1759.29188601    3518.58377202    6333.45078964   12173.67153266   36128.31551628   64088.49013323  1.57079633E+05  2.19911486E+05  6.28318531E+05  2.01061930E+06
    3.92699082E+06  5.49778714E+06       0.19634954       1.57079633       5.30143760      12.56637061      30.63052837      62.83185307     141.37166941     276.46015352     486.94686131     644.02649399    1759.29188601    3518.58377202    6333.45078964   12173.67153266   36128.31551628   64088.49013323  1.57079633E+05  2.19911486E+05
    6.28318531E+05  2.01061930E+06  3.92699082E+06  5.49778714E+06       0.19634954       1.57079633       5.30143760      12.56637061      30.63052837      62.83185307     141.37166941     276.46015352     486.94686131     644.02649399    1759.29188601    3518.58377202    6333.45078964   12173.67153266   36128.31551628   64088.49013323
    1.57079633E+05  2.19911486E+05  6.28318531E+05  2.01061930E+06  3.92699082E+06  5.49778714E+06       0.19634954       1.57079633       5.30143760      12.56637061      30.63052837      62.83185307     141.37166941     276.46015352     486.94686131     644.02649399    1759.29188601    3518.58377202    6333.45078964   12173.67153266
     36128.31551628   64088.49013323  1.57079633E+05  2.19911486E+05  6.28318531E+05  2.01061930E+06  3.92699082E+06  5.49778714E+06       0.19634954       1.57079633       5.30143760      12.56637061      30.63052837      62.83185307     141.37166941     276.46015352     486.94686131     644.02649399    1759.29188601    3518.58377202
      6333.45078964   12173.67153266   36128.31551628   64088.49013323  1.57079633E+05  2.19911486E+05  6.28318531E+05  2.01061930E+06  3.92699082E+06  5.49778714E+06       0.19634954       1.57079633       5.30143760      12.56637061      30.63052837      62.83185307     141.37166941     276.46015352     486.94686131     644.02649399
      1759.29188601    3518.58377202    6333.45078964   12173.67153266   36128.31551628   64088.49013323  1.57079633E+05  2.19911486E+05  6.28318531E+05  2.01061930E+06  3.92699082E+06  5.49778714E+06       0.19634954       1.57079633       5.30143760      12.56637061      30.63052837      62.83185307     141.37166941     276.46015352
       486.94686131     644.02649399    1759.29188601    3518.58377202    6333.45078964   12173.67153266   36128.31551628   64088.49013323  1.57079633E+05  2.19911486E+05  6.28318531E+05  2.01061930E+06  3.92699082E+06  5.49778714E+06       0.19634954       1.57079633       5.30143760      12.56637061      30.63052837      62.83185307
       141.37166941     276.46015352     486.94686131     644.02649399    1759.29188601    3518.58377202    6333.45078964   12173.67153266   36128.31551628   64088.49013323  1.57079633E+05  2.19911486E+05  6.28318531E+05  2.01061930E+06  3.92699082E+06  5.49778714E+06       0.19634954       1.57079633       5.30143760      12.56637061
        30.63052837      62.83185307     141.37166941     276.46015352     486.94686131     644.02649399    1759.29188601    3518.58377202    6333.45078964   12173.67153266   36128.31551628   64088.49013323  1.57079633E+05  2.19911486E+05  6.28318531E+05  2.01061930E+06  3.92699082E+06  5.49778714E+06       0.19634954       1.57079633
         5.30143760      12.56637061      30.63052837      62.83185307     141.37166941     276.46015352     486.94686131     644.02649399    1759.29188601    3518.58377202    6333.45078964   12173.67153266   36128.31551628   64088.49013323  1.57079633E+05  2.19911486E+05  6.28318531E+05  2.01061930E+06  3.92699082E+06  5.49778714E+06
         0.19634954       1.57079633       5.30143760      12.56637061      30.63052837      62.83185307     141.37166941     276.46015352     486.94686131     644.02649399    1759.29188601    3518.58377202    6333.45078964   12173.67153266   36128.31551628   64088.49013323  1.57079633E+05  2.19911486E+05  6.28318531E+05  2.01061930E+06
    3.92699082E+06  5.49778714E+06       0.19634954       1.57079633       5.30143760      12.56637061      30.63052837      62.83185307     141.37166941     276.46015352     486.94686131     644.02649399    1759.29188601    3518.58377202    6333.45078964   12173.67153266   36128.31551628   64088.49013323  1.57079633E+05  2.19911486E+05
    6.28318531E+05  2.01061930E+06  3.92699082E+06  5.49778714E+06       0.19634954       1.57079633       5.30143760      12.56637061      30.63052837      62.83185307     141.37166941     276.46015352     486.94686131     644.02649399    1759.29188601    3518.58377202    6333.45078964   12173.67153266   36128.31551628   64088.49013323
    1.57079633E+05  2.19911486E+05  6.28318531E+05  2.01061930E+06  3.92699082E+06  5.49778714E+06       0.19634954       1.57079633       5.30143760      12.56637061      30.63052837      62.83185307     141.37166941     276.46015352     486.94686131     644.02649399    1759.29188601    3518.58377202    6333.45078964   12173.67153266
     36128.31551628   64088.49013323  1.57079633E+05  2.19911486E+05  6.28318531E+05  2.01061930E+06  3.92699082E+06  5.49778714E+06       0.19634954       1.57079633       5.30143760      12.56637061      30.63052837      62.83185307     141.37166941     276.46015352     486.94686131     644.02649399    1759.29188601    3518.58377202
      6333.45078964   12173.67153266   36128.31551628   64088.49013323  1.57079633E+05  2.19911486E+05  6.28318531E+05  2.01061930E+06  3.92699082E+06  5.49778714E+06       0.19634954       1.57079633       5.30143760      12.56637061      30.63052837      62.83185307     141.37166941     276.46015352     486.94686131     644.02649399
      1759.29188601    3518.58377202    6333.45078964   12173.67153266   36128.31551628   64088.49013323  1.57079633E+05  2.19911486E+05  6.28318531E+05  2.01061930E+06  3.92699082E+06  5.49778714E+06       0.19634954       1.57079633       5.30143760      12.56637061      30.63052837      62.83185307     141.37166941     276.46015352
       486.94686131     644.02649399    1759.29188601    3518.58377202    6333.45078964   12173.67153266   36128.31551628   64088.49013323  1.57079633E+05  2.19911486E+05  6.28318531E+05  2.01061930E+06  3.92699082E+06  5.49778714E+06       0.19634954       1.57079633       5.30143760      12.56637061      30.63052837      62.83185307
       141.37166941     276.46015352     486.94686131     644.02649399    1759.29188601    3518.58377202    6333.45078964   12173.67153266   36128.31551628   64088.49013323  1.57079633E+05  2.19911486E+05  6.28318531E+05  2.01061930E+06  3.92699082E+06  5.49778714E+06       0.19634954       1.57079633       5.30143760      12.56637061
        30.63052837      62.83185307     141.37166941     276.46015352     486.94686131     644.02649399    1759.29188601    3518.58377202    6333.45078964   12173.67153266   36128.31551628   64088.49013323  1.57079633E+05  2.19911486E+05  6.28318531E+05  2.01061930E+06  3.92699082E+06  5.49778714E+06       0.19634954       1.57079633
         5.30143760      12.56637061      30.63052837      62.83185307     141.37166941     276.46015352     486.94686131     644.02649399    1759.29188601    3518.58377202    6333.45078964   12173.67153266   36128.31551628   64088.49013323  1.57079633E+05  2.19911486E+05  6.28318531E+05  2.01061930E+06  3.92699082E+06  5.49778714E+06
         0.19634954       1.57079633       5.30143760      12.56637061      30.63052837      62.83185307     141.37166941     276.46015352     486.94686131     644.02649399    1759.29188601    3518.58377202    6333.45078964   12173.67153266   36128.31551628   64088.49013323  1.57079633E+05  2.19911486E+05  6.28318531E+05  2.01061930E+06
    3.92699082E+06  5.49778714E+06       0.19634954       1.57079633       5.30143760      12.56637061      30.63052837      62.83185307     141.37166941     276.46015352     486.94686131     644.02649399    1759.29188601    3518.58377202    6333.45078964   12173.67153266   36128.31551628   64088.49013323  1.57079633E+05  2.19911486E+05
    6.28318531E+05  2.01061930E+06  3.92699082E+06  5.49778714E+06       0.19634954       1.57079633       5.30143760      12.56637061      30.63052837      62.83185307     141.37166941     276.46015352     486.94686131     644.02649399    1759.29188601    3518.58377202    6333.45078964   12173.67153266   36128.31551628   64088.49013323
    1.57079633E+05  2.19911486E+05  6.28318531E+05  2.01061930E+06  3.92699082E+06  5.49778714E+06       0.19634954       1.57079633       5.30143760      12.56637061      30.63052837      62.83185307     141.37166941     276.46015352     486.94686131     644.02649399    1759.29188601    3518.58377202    6333.45078964   12173.67153266
     36128.31551628   64088.49013323  1.57079633E+05  2.19911486E+05  6.28318531E+05  2.01061930E+06  3.92699082E+06  5.49778714E+06       0.19634954       1.57079633       5.30143760      12.56637061      30.63052837      62.83185307     141.37166941     276.46015352     486.94686131     644.02649399    1759.29188601    3518.58377202
      6333.45078964   12173.67153266   36128.31551628   64088.49013323  1.57079633E+05  2.19911486E+05  6.28318531E+05  2.01061930E+06  3.92699082E+06  5.49778714E+06
END griddata

BEGIN connectiondata
  iac
    INTERNAL  FACTOR  1
    3  4  4  4  4  4  4  4  4  4  4  4  4  4  4  4  4  4  4  4
    4  3  4  5  5  5  5  5  5  5  5  5  5  5  5  5  5  5  5  5
    5  5  5  4  4  5  5  5  5  5  5  5  5  5  5  5  5  5  5  5
    5  5  5  5  5  4  4  5  5  5  5  5  5  5  5  5  5  5  5  5
    5  5  5  5  5  5  5  4  4  5  5  5  5  5  5  5  5  5  5  5
    5  5  5  5  5  5  5  5  5  4  4  5  5  5  5  5  5  5  5  5
    5  5  5  5  5  5  5  5  5  5  5  4  4  5  5  5  5  5  5  5
    5  5  5  5  5  5  5  5  5  5  5  5  5  4  4  5  5  5  5  5
    5  5  5  5  5  5  5  5  5  5  5  5  5  5  5  4  4  5  5  5
    5  5  5  5  5  5  5  5  5  5  5  5  5  5  5  5  5  4  4  5
    5  5  5  5  5  5  5  5  5  5  5  5  5  5  5  5  5  5  5  4
    4  5  5  5  5  5  5  5  5  5  5  5  5  5  5  5  5  5  5  5
    5  4  4  5  5  5  5  5  5  5  5  5  5  5  5  5  5  5  5  5
    5  5  5  4  4  5  5  5  5  5  5  5  5  5  5  5  5  5  5  5
    5  5  5  5  5  4  4  5  5  5  5  5  5  5  5  5  5  5  5  5
    5  5  5  5  5  5  5  4  4  5  5  5  5  5  5  5  5  5  5  5
    5  5  5  5  5  5  5  5  5  4  4  5  5  5  5  5  5  5  5  5
    5  5  5  5  5  5  5  5  5  5  5  4  4  5  5  5  5  5  5  5
    5  5  5  5  5  5  5  5  5  5  5  5  5  4  4  5  5  5  5  5
    5  5  5  5  5  5  5  5  5  5  5  5  5  5  5  4  4  5  5  5
    5  5  5  5  5  5  5  5  5  5  5  5  5  5  5  5  5  4  4  5
    5  5  5  5  5  5  5  5  5  5  5  5  5  5  5  5  5  5  5  4