# File generated by Flopy version 3.10.0.dev2 on 05/09/2025 at 15:28:08.
BEGIN options
END options

BEGIN timing
  TDIS6  ex-gwf-rad-disu.tdis
END timing

BEGIN models
  gwf6  ex-gwf-rad-disu.nam  ex-gwf-rad-disu
END models

BEGIN exchanges
END exchanges

BEGIN solutiongroup  1
  ims6  ex-gwf-rad-disu.ims  ex-gwf-rad-disu
END solutiongroup  1

