# File generated by Flopy version 3.10.0.dev2 on 05/09/2025 at 15:28:05.
BEGIN options
  HEAD  FILEOUT  ex-gwf-nwt-p02.hds
END options

BEGIN period  1
  SAVE  HEAD  LAST
END period  1

