# File generated by Flopy version 3.10.0.dev2 on 05/09/2025 at 15:28:05.
BEGIN options
  NEWTON
END options

BEGIN packages
  DIS6  ex-gwf-nwt-p02.dis  dis
  NPF6  ex-gwf-nwt-p02.npf  npf
  STO6  ex-gwf-nwt-p02.sto  sto
  IC6  ex-gwf-nwt-p02.ic  ic
  CHD6  ex-gwf-nwt-p02.chd  chd_0
  RCH6  ex-gwf-nwt-p02.rch  rch_0
  OC6  ex-gwf-nwt-p02.oc  oc
END packages

