# File generated by Flopy version 3.10.0.dev2 on 05/09/2025 at 15:29:24.
BEGIN options
  ALTERNATIVE_CELL_AVERAGING  amt-hmk
  SAVE_SPECIFIC_DISCHARGE
END options

BEGIN griddata
  icelltype
    CONSTANT  1
  k  LAYERED
    INTERNAL  FACTOR  1.0
           0.00500000       0.00500000       0.00000000       0.00000000       0.00000000       0.00000000       0.00000000       0.00000000       0.00000000       0.00000000
           0.00100000       0.00500000       0.00500000       0.00000000       0.00000000       0.00100000       0.00100000       0.00100000       0.00000000       0.00000000
           0.00000000       0.00100000       0.00500000       0.00500000       0.00100000       0.00100000       0.00100000       0.00100000       0.00000000       0.00000000
           0.00100000       0.00100000       0.00100000       0.00500000       0.00500000       0.00500000       0.00100000       0.00100000       0.00100000       0.00000000
           0.00100000       0.00100000       0.00100000       0.00500000       0.00500000       0.00500000       0.00500000       0.00500000       0.00500000       0.00500000
           0.00100000       0.00100000       0.00100000       0.00500000       0.00500000       0.00500000       0.00500000       0.00500000       0.00100000       0.00100000
           0.00100000       0.00100000       0.00100000       0.00500000       0.00500000       0.00500000       0.00500000       0.00500000       0.00100000       0.00000000
           0.00000000       0.00100000       0.00100000       0.00500000       0.00500000       0.00500000       0.00500000       0.00100000       0.00100000       0.00000000
           0.00000000       0.00100000       0.00100000       0.00500000       0.00500000       0.00500000       0.00500000       0.00100000       0.00100000       0.00000000
           0.00000000       0.00100000       0.00100000       0.00500000       0.00500000       0.00500000       0.00500000       0.00100000       0.00100000       0.00100000
           0.00000000       0.00100000       0.00100000       0.00500000       0.00500000       0.00500000       0.00500000       0.00100000       0.00100000       0.00000000
           0.00100000       0.00100000       0.00500000       0.00500000       0.00500000       0.00500000       0.00500000       0.00100000       0.00100000       0.00000000
           0.00500000       0.00500000       0.00500000       0.00500000       0.00500000       0.00500000       0.00500000       0.00500000       0.00500000       0.00000000
           0.00000000       0.00100000       0.00100000       0.00100000       0.00100000       0.00100000       0.00100000       0.00100000       0.00500000       0.00000000
           0.00000000       0.00000000       0.00100000       0.00100000       0.00100000       0.00100000       0.00000000       0.00000000       0.00000000       0.00000000
    INTERNAL  FACTOR  1.0
           0.00350000       0.00350000       0.00350000       0.00350000       0.00350000       0.00350000       0.00350000       0.00350000       0.00350000       0.00350000
           0.00350000       0.00350000       0.00350000       0.00350000       0.00350000       0.00350000       0.00350000       0.00350000       0.00350000       0.00350000
           0.00350000       0.00350000       0.00350000       0.00350000       0.00350000       0.00350000       0.00350000       0.00350000       0.00350000       0.00350000
           0.00350000       0.00350000       0.00350000       0.00350000       0.00350000       0.00350000       0.00350000       0.00350000       0.00350000       0.00350000
           0.00350000       0.00350000       0.00350000       0.00350000       0.00350000       0.00350000       0.00350000       0.00350000       0.00350000       0.00350000
           0.00350000       0.00350000       0.00350000       0.00350000       0.00350000       0.00350000       0.00350000       0.00350000       0.00350000       0.00350000
           0.00350000       0.00350000       0.00350000       0.00350000       0.00350000       0.00350000       0.00350000       0.00350000       0.00350000       0.00350000
           0.00350000       0.00350000       0.00350000       0.00350000       0.00350000       0.00350000       0.00350000       0.00350000       0.00350000       0.00350000
           0.00350000       0.00350000       0.00350000       0.00350000       0.00350000       0.00350000       0.00350000       0.00350000       0.00350000       0.00350000
           0.00350000       0.00350000       0.00350000       0.00350000       0.00350000       0.00350000       0.00350000       0.00350000       0.00350000       0.00350000
           0.00350000       0.00350000       0.00350000       0.00350000       0.00350000       0.00350000       0.00350000       0.00350000       0.00350000       0.00350000
           0.00350000       0.00350000       0.00350000       0.00350000       0.00350000       0.00350000       0.00350000       0.00350000       0.00350000       0.00350000
           0.00350000       0.00350000       0.00350000       0.00350000       0.00350000       0.00350000       0.00350000       0.00350000       0.00350000       0.00350000
           0.00350000       0.00350000       0.00350000       0.00350000       0.00350000       0.00350000       0.00350000       0.00350000       0.00350000       0.00350000
           0.00350000       0.00350000       0.00350000       0.00350000       0.00350000       0.00350000       0.00350000       0.00350000       0.00350000       0.00350000
  k33
    CONSTANT  5.00000000E-06
END griddata

