# File generated by Flopy version 3.10.0.dev2 on 05/09/2025 at 15:29:24.
BEGIN options
  PRINT_INPUT
  PRINT_FLOWS
  SAVE_FLOWS
  MOVER
END options

BEGIN dimensions
  MAXBOUND  10
END dimensions

BEGIN period  1
  1 6 4 0
  1 6 5 0
  1 7 4 0
  1 7 5 0
  1 8 4 0
  1 8 5 0
  1 9 4 0
  1 9 5 0
  1 10 4 0
  1 10 5 0
END period  1

BEGIN period  3
  1 6 4 -8.50000000E-01
  1 6 5 -8.50000000E-01
  1 7 4 -8.50000000E-01
  1 7 5 -8.50000000E-01
  1 8 4 -8.50000000E-01
  1 8 5 -8.50000000E-01
  1 9 4 -8.50000000E-01
  1 9 5 -8.50000000E-01
  1 10 4 -8.50000000E-01
  1 10 5 -8.50000000E-01
END period  3

BEGIN period  5
  1 6 4 -1.70000000E+00
  1 6 5 -1.70000000E+00
  1 7 4 -1.70000000E+00
  1 7 5 -1.70000000E+00
  1 8 4 -1.70000000E+00
  1 8 5 -1.70000000E+00
  1 9 4 -1.70000000E+00
  1 9 5 -1.70000000E+00
  1 10 4 -1.70000000E+00
  1 10 5 -1.70000000E+00
END period  5

BEGIN period  6
  1 6 4 0.00000000E+00
  1 6 5 0.00000000E+00
  1 7 4 0.00000000E+00
  1 7 5 0.00000000E+00
  1 8 4 0.00000000E+00
  1 8 5 0.00000000E+00
  1 9 4 0.00000000E+00
  1 9 5 0.00000000E+00
  1 10 4 0.00000000E+00
  1 10 5 0.00000000E+00
END period  6

BEGIN period  7
  1 6 4 -8.50000000E-01
  1 6 5 -8.50000000E-01
  1 7 4 -8.50000000E-01
  1 7 5 -8.50000000E-01
  1 8 4 -8.50000000E-01
  1 8 5 -8.50000000E-01
  1 9 4 -8.50000000E-01
  1 9 5 -8.50000000E-01
  1 10 4 -8.50000000E-01
  1 10 5 -8.50000000E-01
END period  7

BEGIN period  8
  1 6 4 0.00000000E+00
  1 6 5 0.00000000E+00
  1 7 4 0.00000000E+00
  1 7 5 0.00000000E+00
  1 8 4 0.00000000E+00
  1 8 5 0.00000000E+00
  1 9 4 0.00000000E+00
  1 9 5 0.00000000E+00
  1 10 4 0.00000000E+00
  1 10 5 0.00000000E+00
END period  8

BEGIN period  9
  1 6 4 -8.50000000E-01
  1 6 5 -8.50000000E-01
  1 7 4 -8.50000000E-01
  1 7 5 -8.50000000E-01
  1 8 4 -8.50000000E-01
  1 8 5 -8.50000000E-01
  1 9 4 -8.50000000E-01
  1 9 5 -8.50000000E-01
  1 10 4 -8.50000000E-01
  1 10 5 -8.50000000E-01
END period  9

BEGIN period  10
  1 6 4 0.00000000E+00
  1 6 5 0.00000000E+00
  1 7 4 0.00000000E+00
  1 7 5 0.00000000E+00
  1 8 4 0.00000000E+00
  1 8 5 0.00000000E+00
  1 9 4 0.00000000E+00
  1 9 5 0.00000000E+00
  1 10 4 0.00000000E+00
  1 10 5 0.00000000E+00
END period  10

BEGIN period  11
  1 6 4 -2.55000000E+00
  1 6 5 -2.55000000E+00
  1 7 4 -2.55000000E+00
  1 7 5 -2.55000000E+00
  1 8 4 -2.55000000E+00
  1 8 5 -2.55000000E+00
  1 9 4 -2.55000000E+00
  1 9 5 -2.55000000E+00
  1 10 4 -2.55000000E+00
  1 10 5 -2.55000000E+00
END period  11

BEGIN period  12
  1 6 4 0.00000000E+00
  1 6 5 0.00000000E+00
  1 7 4 0.00000000E+00
  1 7 5 0.00000000E+00
  1 8 4 0.00000000E+00
  1 8 5 0.00000000E+00
  1 9 4 0.00000000E+00
  1 9 5 0.00000000E+00
  1 10 4 0.00000000E+00
  1 10 5 0.00000000E+00
END period  12

