# File generated by Flopy version 3.10.0.dev2 on 05/09/2025 at 15:29:24.
BEGIN options
  BUDGET  FILEOUT  ex-gwf-sfr-p01b.cbc
  HEAD  FILEOUT  ex-gwf-sfr-p01b.hds
END options

BEGIN period  1
  SAVE  HEAD  LAST
  SAVE  BUDGET  LAST
END period  1

