# File generated by Flopy version 3.10.0.dev2 on 05/09/2025 at 15:29:24.
BEGIN options
END options

BEGIN timing
  TDIS6  ex-gwf-sfr-p01b.tdis
END timing

BEGIN models
  gwf6  ex-gwf-sfr-p01b.nam  ex-gwf-sfr-p01b
END models

BEGIN exchanges
END exchanges

BEGIN solutiongroup  1
  ims6  ex-gwf-sfr-p01b.ims  ex-gwf-sfr-p01b
END solutiongroup  1

