# File generated by Flopy version 3.10.0.dev2 on 05/09/2025 at 15:28:19.
BEGIN options
  LENGTH_UNITS  centimeters
END options

BEGIN dimensions
  NLAY  1
  NROW  1
  NCOL  122
END dimensions

BEGIN griddata
  delr
    CONSTANT       0.10000000
  delc
    CONSTANT       0.10000000
  top
    CONSTANT       1.00000000
  botm
    CONSTANT       0.00000000
END griddata

