# File generated by Flopy version 3.10.0.dev2 on 05/09/2025 at 15:28:19.
BEGIN options
END options

BEGIN sources
  WEL-1  AUX  CONCENTRATION
END sources

