# File generated by Flopy version 3.10.0.dev2 on 05/09/2025 at 15:28:05.
BEGIN options
END options

BEGIN dimensions
  MAXBOUND  395
END dimensions

BEGIN period  1
  10 1 40 2.50000000E+01
  10 2 40 2.50000000E+01
  10 3 40 2.50000000E+01
  10 4 40 2.50000000E+01
  10 5 40 2.50000000E+01
  10 6 40 2.50000000E+01
  10 7 40 2.50000000E+01
  10 8 40 2.50000000E+01
  10 9 40 2.50000000E+01
  10 10 40 2.50000000E+01
  10 11 40 2.50000000E+01
  10 12 40 2.50000000E+01
  10 13 40 2.50000000E+01
  10 14 40 2.50000000E+01
  10 15 40 2.50000000E+01
  10 16 40 2.50000000E+01
  10 17 40 2.50000000E+01
  10 18 40 2.50000000E+01
  10 19 40 2.50000000E+01
  10 20 40 2.50000000E+01
  10 21 40 2.50000000E+01
  10 22 40 2.50000000E+01
  10 23 40 2.50000000E+01
  10 24 40 2.50000000E+01
  10 25 40 2.50000000E+01
  10 26 40 2.50000000E+01
  10 27 40 2.50000000E+01
  10 28 40 2.50000000E+01
  10 29 40 2.50000000E+01
  10 30 40 2.50000000E+01
  10 31 40 2.50000000E+01
  10 32 40 2.50000000E+01
  10 33 40 2.50000000E+01
  10 34 40 2.50000000E+01
  10 35 40 2.50000000E+01
  10 36 40 2.50000000E+01
  10 37 40 2.50000000E+01
  10 38 40 2.50000000E+01
  10 39 40 2.50000000E+01
  10 40 1 2.50000000E+01
  10 40 2 2.50000000E+01
  10 40 3 2.50000000E+01
  10 40 4 2.50000000E+01
  10 40 5 2.50000000E+01
  10 40 6 2.50000000E+01
  10 40 7 2.50000000E+01
  10 40 8 2.50000000E+01
  10 40 9 2.50000000E+01
  10 40 10 2.50000000E+01
  10 40 11 2.50000000E+01
  10 40 12 2.50000000E+01
  10 40 13 2.50000000E+01
  10 40 14 2.50000000E+01
  10 40 15 2.50000000E+01
  10 40 16 2.50000000E+01
  10 40 17 2.50000000E+01
  10 40 18 2.50000000E+01
  10 40 19 2.50000000E+01
  10 40 20 2.50000000E+01
  10 40 21 2.50000000E+01
  10 40 22 2.50000000E+01
  10 40 23 2.50000000E+01
  10 40 24 2.50000000E+01
  10 40 25 2.50000000E+01
  10 40 26 2.50000000E+01
  10 40 27 2.50000000E+01
  10 40 28 2.50000000E+01
  10 40 29 2.50000000E+01
  10 40 30 2.50000000E+01
  10 40 31 2.50000000E+01
  10 40 32 2.50000000E+01
  10 40 33 2.50000000E+01
  10 40 34 2.50000000E+01
  10 40 35 2.50000000E+01
  10 40 36 2.50000000E+01
  10 40 37 2.50000000E+01
  10 40 38 2.50000000E+01
  10 40 39 2.50000000E+01
  10 40 40 2.50000000E+01
  11 1 40 2.50000000E+01
  11 2 40 2.50000000E+01
  11 3 40 2.50000000E+01
  11 4 40 2.50000000E+01
  11 5 40 2.50000000E+01
  11 6 40 2.50000000E+01
  11 7 40 2.50000000E+01
  11 8 40 2.50000000E+01
  11 9 40 2.50000000E+01
  11 10 40 2.50000000E+01
  11 11 40 2.50000000E+01
  11 12 40 2.50000000E+01
  11 13 40 2.50000000E+01
  11 14 40 2.50000000E+01
  11 15 40 2.50000000E+01
  11 16 40 2.50000000E+01
  11 17 40 2.50000000E+01
  11 18 40 2.50000000E+01
  11 19 40 2.50000000E+01
  11 20 40 2.50000000E+01
  11 21 40 2.50000000E+01
  11 22 40 2.50000000E+01
  11 23 40 2.50000000E+01
  11 24 40 2.50000000E+01
  11 25 40 2.50000000E+01
  11 26 40 2.50000000E+01
  11 27 40 2.50000000E+01
  11 28 40 2.50000000E+01
  11 29 40 2.50000000E+01
  11 30 40 2.50000000E+01
  11 31 40 2.50000000E+01
  11 32 40 2.50000000E+01
  11 33 40 2.50000000E+01
  11 34 40 2.50000000E+01
  11 35 40 2.50000000E+01
  11 36 40 2.50000000E+01
  11 37 40 2.50000000E+01
  11 38 40 2.50000000E+01
  11 39 40 2.50000000E+01
  11 40 1 2.50000000E+01
  11 40 2 2.50000000E+01
  11 40 3 2.50000000E+01
  11 40 4 2.50000000E+01
  11 40 5 2.50000000E+01
  11 40 6 2.50000000E+01
  11 40 7 2.50000000E+01
  11 40 8 2.50000000E+01
  11 40 9 2.50000000E+01
  11 40 10 2.50000000E+01
  11 40 11 2.50000000E+01
  11 40 12 2.50000000E+01
  11 40 13 2.50000000E+01
  11 40 14 2.50000000E+01
  11 40 15 2.50000000E+01
  11 40 16 2.50000000E+01
  11 40 17 2.50000000E+01
  11 40 18 2.50000000E+01
  11 40 19 2.50000000E+01
  11 40 20 2.50000000E+01
  11 40 21 2.50000000E+01
  11 40 22 2.50000000E+01
  11 40 23 2.50000000E+01
  11 40 24 2.50000000E+01
  11 40 25 2.50000000E+01
  11 40 26 2.50000000E+01
  11 40 27 2.50000000E+01
  11 40 28 2.50000000E+01
  11 40 29 2.50000000E+01
  11 40 30 2.50000000E+01
  11 40 31 2.50000000E+01
  11 40 32 2.50000000E+01
  11 40 33 2.50000000E+01
  11 40 34 2.50000000E+01
  11 40 35 2.50000000E+01
  11 40 36 2.50000000E+01
  11 40 37 2.50000000E+01
  11 40 38 2.50000000E+01
  11 40 39 2.50000000E+01
  11 40 40 2.50000000E+01
  12 1 40 2.50000000E+01
  12 2 40 2.50000000E+01
  12 3 40 2.50000000E+01
  12 4 40 2.50000000E+01
  12 5 40 2.50000000E+01
  12 6 40 2.50000000E+01
  12 7 40 2.50000000E+01
  12 8 40 2.50000000E+01
  12 9 40 2.50000000E+01
  12 10 40 2.50000000E+01
  12 11 40 2.50000000E+01
  12 12 40 2.50000000E+01
  12 13 40 2.50000000E+01
  12 14 40 2.50000000E+01
  12 15 40 2.50000000E+01
  12 16 40 2.50000000E+01
  12 17 40 2.50000000E+01
  12 18 40 2.50000000E+01
  12 19 40 2.50000000E+01
  12 20 40 2.50000000E+01
  12 21 40 2.50000000E+01
  12 22 40 2.50000000E+01
  12 23 40 2.50000000E+01
  12 24 40 2.50000000E+01
  12 25 40 2.50000000E+01
  12 26 40 2.50000000E+01
  12 27 40 2.50000000E+01
  12 28 40 2.50000000E+01
  12 29 40 2.50000000E+01
  12 30 40 2.50000000E+01
  12 31 40 2.50000000E+01
  12 32 40 2.50000000E+01
  12 33 40 2.50000000E+01
  12 34 40 2.50000000E+01
  12 35 40 2.50000000E+01
  12 36 40 2.50000000E+01
  12 37 40 2.50000000E+01
  12 38 40 2.50000000E+01
  12 39 40 2.50000000E+01
  12 40 1 2.50000000E+01
  12 40 2 2.50000000E+01
  12 40 3 2.50000000E+01
  12 40 4 2.50000000E+01
  12 40 5 2.50000000E+01
  12 40 6 2.50000000E+01
  12 40 7 2.50000000E+01
  12 40 8 2.50000000E+01
  12 40 9 2.50000000E+01
  12 40 10 2.50000000E+01
  12 40 11 2.50000000E+01
  12 40 12 2.50000000E+01
  12 40 13 2.50000000E+01
  12 40 14 2.50000000E+01
  12 40 15 2.50000000E+01
  12 40 16 2.50000000E+01
  12 40 17 2.50000000E+01
  12 40 18 2.50000000E+01
  12 40 19 2.50000000E+01
  12 40 20 2.50000000E+01
  12 40 21 2.50000000E+01
  12 40 22 2.50000000E+01
  12 40 23 2.50000000E+01
  12 40 24 2.50000000E+01
  12 40 25 2.50000000E+01
  12 40 26 2.50000000E+01
  12 40 27 2.50000000E+01
  12 40 28 2.50000000E+01
  12 40 29 2.50000000E+01
  12 40 30 2.50000000E+01
  12 40 31 2.50000000E+01
  12 40 32 2.50000000E+01
  12 40 33 2.50000000E+01
  12 40 34 2.50000000E+01
  12 40 35 2.50000000E+01
  12 40 36 2.50000000E+01
  12 40 37 2.50000000E+01
  12 40 38 2.50000000E+01
  12 40 39 2.50000000E+01
  12 40 40 2.50000000E+01
  13 1 40 2.50000000E+01
  13 2 40 2.50000000E+01
  13 3 40 2.50000000E+01
  13 4 40 2.50000000E+01
  13 5 40 2.50000000E+01
  13 6 40 2.50000000E+01
  13 7 40 2.50000000E+01
  13 8 40 2.50000000E+01
  13 9 40 2.50000000E+01
  13 10 40 2.50000000E+01
  13 11 40 2.50000000E+01
  13 12 40 2.50000000E+01
  13 13 40 2.50000000E+01
  13 14 40 2.50000000E+01
  13 15 40 2.50000000E+01
  13 16 40 2.50000000E+01
  13 17 40 2.50000000E+01
  13 18 40 2.50000000E+01
  13 19 40 2.50000000E+01
  13 20 40 2.50000000E+01
  13 21 40 2.50000000E+01
  13 22 40 2.50000000E+01
  13 23 40 2.50000000E+01
  13 24 40 2.50000000E+01
  13 25 40 2.50000000E+01
  13 26 40 2.50000000E+01
  13 27 40 2.50000000E+01
  13 28 40 2.50000000E+01
  13 29 40 2.50000000E+01
  13 30 40 2.50000000E+01
  13 31 40 2.50000000E+01
  13 32 40 2.50000000E+01
  13 33 40 2.50000000E+01
  13 34 40 2.50000000E+01
  13 35 40 2.50000000E+01
  13 36 40 2.50000000E+01
  13 37 40 2.50000000E+01
  13 38 40 2.50000000E+01
  13 39 40 2.50000000E+01
  13 40 1 2.50000000E+01
  13 40 2 2.50000000E+01
  13 40 3 2.50000000E+01
  13 40 4 2.50000000E+01
  13 40 5 2.50000000E+01
  13 40 6 2.50000000E+01
  13 40 7 2.50000000E+01
  13 40 8 2.50000000E+01
  13 40 9 2.50000000E+01
  13 40 10 2.50000000E+01
  13 40 11 2.50000000E+01
  13 40 12 2.50000000E+01
  13 40 13 2.50000000E+01
  13 40 14 2.50000000E+01
  13 40 15 2.50000000E+01
  13 40 16 2.50000000E+01
  13 40 17 2.50000000E+01
  13 40 18 2.50000000E+01
  13 40 19 2.50000000E+01
  13 40 20 2.50000000E+01
  13 40 21 2.50000000E+01
  13 40 22 2.50000000E+01
  13 40 23 2.50000000E+01
  13 40 24 2.50000000E+01
  13 40 25 2.50000000E+01
  13 40 26 2.50000000E+01
  13 40 27 2.50000000E+01
  13 40 28 2.50000000E+01
  13 40 29 2.50000000E+01
  13 40 30 2.50000000E+01
  13 40 31 2.50000000E+01
  13 40 32 2.50000000E+01
  13 40 33 2.50000000E+01
  13 40 34 2.50000000E+01
  13 40 35 2.50000000E+01
  13 40 36 2.50000000E+01
  13 40 37 2.50000000E+01
  13 40 38 2.50000000E+01
  13 40 39 2.50000000E+01
  13 40 40 2.50000000E+01
  14 1 40 2.50000000E+01
  14 2 40 2.50000000E+01
  14 3 40 2.50000000E+01
  14 4 40 2.50000000E+01
  14 5 40 2.50000000E+01
  14 6 40 2.50000000E+01
  14 7 40 2.50000000E+01
  14 8 40 2.50000000E+01
  14 9 40 2.50000000E+01
  14 10 40 2.50000000E+01
  14 11 40 2.50000000E+01
  14 12 40 2.50000000E+01
  14 13 40 2.50000000E+01
  14 14 40 2.50000000E+01
  14 15 40 2.50000000E+01
  14 16 40 2.50000000E+01
  14 17 40 2.50000000E+01
  14 18 40 2.50000000E+01
  14 19 40 2.50000000E+01
  14 20 40 2.50000000E+01
  14 21 40 2.50000000E+01
  14 22 40 2.50000000E+01
  14 23 40 2.50000000E+01
  14 24 40 2.50000000E+01
  14 25 40 2.50000000E+01
  14 26 40 2.50000000E+01
  14 27 40 2.50000000E+01
  14 28 40 2.50000000E+01
  14 29 40 2.50000000E+01
  14 30 40 2.50000000E+01
  14 31 40 2.50000000E+01
  14 32 40 2.50000000E+01
  14 33 40 2.50000000E+01
  14 34 40 2.50000000E+01
  14 35 40 2.50000000E+01
  14 36 40 2.50000000E+01
  14 37 40 2.50000000E+01
  14 38 40 2.50000000E+01
  14 39 40 2.50000000E+01
  14 40 1 2.50000000E+01
  14 40 2 2.50000000E+01
  14 40 3 2.50000000E+01
  14 40 4 2.50000000E+01
  14 40 5 2.50000000E+01
  14 40 6 2.50000000E+01
  14 40 7 2.50000000E+01
  14 40 8 2.50000000E+01
  14 40 9 2.50000000E+01
  14 40 10 2.50000000E+01
  14 40 11 2.50000000E+01
  14 40 12 2.50000000E+01
  14 40 13 2.50000000E+01
  14 40 14 2.50000000E+01
  14 40 15 2.50000000E+01
  14 40 16 2.50000000E+01
  14 40 17 2.50000000E+01
  14 40 18 2.50000000E+01
  14 40 19 2.50000000E+01
  14 40 20 2.50000000E+01
  14 40 21 2.50000000E+01
  14 40 22 2.50000000E+01
  14 40 23 2.50000000E+01
  14 40 24 2.50000000E+01
  14 40 25 2.50000000E+01
  14 40 26 2.50000000E+01
  14 40 27 2.50000000E+01
  14 40 28 2.50000000E+01
  14 40 29 2.50000000E+01
  14 40 30 2.50000000E+01
  14 40 31 2.50000000E+01
  14 40 32 2.50000000E+01
  14 40 33 2.50000000E+01
  14 40 34 2.50000000E+01
  14 40 35 2.50000000E+01
  14 40 36 2.50000000E+01
  14 40 37 2.50000000E+01
  14 40 38 2.50000000E+01
  14 40 39 2.50000000E+01
  14 40 40 2.50000000E+01
END period  1

