# File generated by Flopy version 3.10.0.dev2 on 05/09/2025 at 15:28:24.
BEGIN options
  PRINT_OPTION  summary
END options

BEGIN nonlinear
  OUTER_DVCLOSE  1.00000000E-08
END nonlinear

BEGIN linear
  INNER_DVCLOSE  1.00000000E-08
END linear

