# File generated by Flopy version 3.9.3 on 07/27/2025 at 12:58:28.
BEGIN options
END options

BEGIN dimensions
  NLAY  1
  NROW  100
  NCOL  100
END dimensions

BEGIN griddata
  delr
    CONSTANT     100.00000000
  delc
    CONSTANT     100.00000000
  top
    CONSTANT      10.00000000
  botm
    CONSTANT       0.00000000
END griddata

