# File generated by Flopy version 3.9.3 on 07/27/2025 at 12:58:28.
BEGIN options
  BUDGET  FILEOUT  gwfmodel.cbc
  HEAD  FILEOUT  gwfmodel.hds
END options

BEGIN period  1
  SAVE  HEAD  ALL
  SAVE  BUDGET  ALL
  PRINT  HEAD  LAST
  PRINT  BUDGET  LAST
END period  1

