# File generated by Flopy version 3.9.3 on 07/27/2025 at 12:58:28.
BEGIN options
  SAVE_FLOWS
END options

BEGIN packages
  DIS6  gwfmodel.dis  dis
  IC6  gwfmodel.ic  ic
  NPF6  gwfmodel.npf  npf
  STO6  gwfmodel.sto  sto
  OC6  gwfmodel.oc  oc
END packages

