# File generated by Flopy version 3.9.3 on 07/27/2025 at 12:58:28.
BEGIN options
END options

BEGIN griddata
  iconvert
    CONSTANT  1
  ss
    CONSTANT  1.00000000E-04
  sy
    CONSTANT       0.30000000
END griddata

