# File generated by Flopy version 3.9.3 on 07/27/2025 at 12:58:28.
BEGIN options
END options

BEGIN griddata
  icelltype
    CONSTANT  1
  k
    CONSTANT      10.00000000
END griddata

