# File generated by Flopy version 3.9.3 on 07/27/2025 at 12:58:28.
BEGIN options
END options

BEGIN timing
  TDIS6  testmodel.tdis
END timing

BEGIN models
  gwf6  gwfmodel.nam  gwfmodel
END models

BEGIN exchanges
END exchanges

BEGIN solutiongroup  1
  ims6  testmodel.ims  gwfmodel
END solutiongroup  1

