# MPSIM package for MODPATH 7 generated by Flopy 3.9.3
modpath7_model.mpnam
modpath7_model.mplst
2 2 2 2 1 0
modpath7_model.mpend
modpath7_model.mppth
0
1
0
2
1
1
1
group1
1
0.0
INTERNAL
1
1
1 1
         1         1         9         7             0.5             0.5             0.5               0         0
