# File generated by Flopy version 3.9.3 on 07/27/2025 at 12:58:28.
BEGIN options
  PRINT_OPTION  summary
  COMPLEXITY  simple
END options

