# File generated by Flopy version 3.10.0.dev2 on 05/09/2025 at 15:28:09.
BEGIN options
END options

BEGIN timing
  TDIS6  ex-gwf-u1gwfgwf-s1.tdis
END timing

BEGIN models
  gwf6  outer.nam  outer
  gwf6  inner.nam  inner
END models

BEGIN exchanges
  GWF6-GWF6  ex-gwf-u1gwfgwf-s1.gwfgwf  outer  inner
END exchanges

BEGIN solutiongroup  1
  ims6  ex-gwf-u1gwfgwf-s1.ims  outer  inner
END solutiongroup  1

