# File generated by Flopy version 3.10.0.dev2 on 05/09/2025 at 15:28:36.
BEGIN options
END options

BEGIN linear
  LINEAR_ACCELERATION  bicgstab
END linear

