# Name file for MODPATH 7, generated by Flopy version 3.10.0.dev2.
MPBAS      mp7-p01-mp7.mpbas
GRBDIS     ../gwf/mp7-p01-gwf.dis.grb
TDIS       ../gwf/mp7-p01-gwf.tdis
HEAD       ../gwf/mp7-p01-gwf.hds
BUDGET     ../gwf/mp7-p01-gwf.cbb
