# MPSIM package for MODPATH 7 generated by Flopy 3.10.0.dev2
mp7-p01-mp7.mpnam
mp7-p01-mp7.mplst
4 1 1 1 1 0
mp7-p01-mp7.mpend
mp7-p01-mp7.mppth
mp7-p01-mp7.timeseries
0
2
1 1 0
2
1
500 1000.0
2
-1
INTERNAL               1    (20I10) -1 #zones layer 1                 
         0         0         0         0         0         0         0         0         0         0         0         0         0         0         0         0         0         0         0         2
         0         0         0         0         0         0         0         0         0         0         0         0         0         0         0         0         0         0         0         2
         0         0         0         0         0         0         0         0         0         0         0         0         0         0         0         0         0         0         0         2
         0         0         0         0         0         0         0         0         0         0         0         0         0         0         0         0         0         0         0         2
         0         0         0         0         0         0         0         0         0         0         0         0         0         0         0         0         0         0         0         2
         0         0         0         0         0         0         0         0         0         0         0         0         0         0         0         0         0         0         0         2
         0         0         0         0         0         0         0         0         0         0         0         0         0         0         0         0         0         0         0         2
         0         0         0         0         0         0         0         0         0         0         0         0         0         0         0         0         0         0         0         2
         0         0         0         0         0         0         0         0         0         0         0         0         0         0         0         0         0         0         0         2
         0         0         0         0         0         0         0         0         0         0         0         0         0         0         0         0         0         0         0         2
         0         0         0         0         0         0         0         0         0         0         0         0         0         0         0         0         0         0         0         2
         0         0         0         0         0         0         0         0         0         0         0         0         0         0         0         0         0         0         0         2
         0         0         0         0         0         0         0         0         0         0         0         0         0         0         0         0         0         0         0         2
         0         0         0         0         0         0         0         0         0         0         0         0         0         0         0         0         0         0         0         2
         0         0         0         0         0         0         0         0         0         0         0         0         0         0         0         0         0         0         0         2
         0         0         0         0         0         0         0         0         0         0         0         0         0         0         0         0         0         0         0         2
         0         0         0         0         0         0         0         0         0         0         0         0         0         0         0         0         0         0         0         2
         0         0         0         0         0         0         0         0         0         0         0         0         0         0         0         0         0         0         0         2
         0         0         0         0         0         0         0         0         0         0         0         0         0         0         0         0         0         0         0         2
         0         0         0         0         0         0         0         0         0         0         0         0         0         0         0         0         0         0         0         2
         0         0         0         0         0         0         0         0         0         0         0         0         0         0         0         0         0         0         0         2
INTERNAL               1    (20I10) -1 #zones layer 2                 
         0         0         0         0         0         0         0         0         0         0         0         0         0         0         0         0         0         0         0         0
         0         0         0         0         0         0         0         0         0         0         0         0         0         0         0         0         0         0         0         0
         0         0         0         0         0         0         0         0         0         0         0         0         0         0         0         0         0         0         0         0
         0         0         0         0         0         0         0         0         0         0         0         0         0         0         0         0         0         0         0         0
         0         0         0         0         0         0         0         0         0         0         0         0         0         0         0         0         0         0         0         0
         0         0         0         0         0         0         0         0         0         0         0         0         0         0         0         0         0         0         0         0
         0         0         0         0         0         0         0         0         0         0         0         0         0         0         0         0         0         0         0         0
         0         0         0         0         0         0         0         0         0         0         0         0         0         0         0         0         0         0         0         0
         0         0         0         0         0         0         0         0         0         0         0         0         0         0         0         0         0         0         0         0
         0         0         0         0         0         0         0         0         0         0         0         0         0         0         0         0         0         0         0         0
         0         0         0         0         0         0         0         0         0         0         0         0         0         0         0         0         0         0         0         0
         0         0         0         0         0         0         0         0         0         0         0         0         0         0         0         0         0         0         0         0
         0         0         0         0         0         0         0         0         0         0         0         0         0         0         0         0         0         0         0         0
         0         0         0         0         0         0         0         0         0         0         0         0         0         0         0         0         0         0         0         0
         0         0         0         0         0         0         0         0         0         0         0         0         0         0         0         0         0         0         0         0
         0         0         0         0         0         0         0         0         0         0         0         0         0         0         0         0         0         0         0         0
         0         0         0         0         0         0         0         0         0         0         0         0         0         0         0         0         0         0         0         0
         0         0         0         0         0         0         0         0         0         0         0         0         0         0         0         0         0         0         0         0
         0         0         0         0         0         0         0         0         0         0         0         0         0         0         0         0         0         0         0         0
         0         0         0         0         0         0         0         0         0         0         0         0         0         0         0         0         0         0         0         0
         0         0         0         0         0         0         0         0         0         0         0         0         0         0         0         0         0         0         0         0
INTERNAL               1    (20I10) -1 #zones layer 3                 
         0         0         0         0         0         0         0         0         0         0         0         0         0         0         0         0         0         0         0         0
         0         0         0         0         0         0         0         0         0         0         0         0         0         0         0         0         0         0         0         0
         0         0         0         0         0         0         0         0         0         0         0         0         0         0         0         0         0         0         0         0
         0         0         0         0         0         0         0         0         0         0         0         0         0         0         0         0         0         0         0         0
         0         0         0         0         0         0         0         0         0         0         0         0         0         0         0         0         0         0         0         0
         0         0         0         0         0         0         0         0         0         0         0         0         0         0         0         0         0         0         0         0
         0         0         0         0         0         0         0         0         0         0         0         0         0         0         0         0         0         0         0         0
         0         0         0         0         0         0         0         0         0         0         0         0         0         0         0         0         0         0         0         0
         0         0         0         0         0         0         0         0         0         0         0         0         0         0         0         0         0         0         0         0
         0         0         0         0         0         0         0         0         0         0         0         0         0         0         0         0         0         0         0         0
         0         0         0         0         0         0         0         0         0         1         0         0         0         0         0         0         0         0         0         0
         0         0         0         0         0         0         0         0         0         0         0         0         0         0         0         0         0         0         0         0
         0         0         0         0         0         0         0         0         0         0         0         0         0         0         0         0         0         0         0         0
         0         0         0         0         0         0         0         0         0         0         0         0         0         0         0         0         0         0         0         0
         0         0         0         0         0         0         0         0         0         0         0         0         0         0         0         0         0         0         0         0
         0         0         0         0         0         0         0         0         0         0         0         0         0         0         0         0         0         0         0         0
         0         0         0         0         0         0         0         0         0         0         0         0         0         0         0         0         0         0         0         0
         0         0         0         0         0         0         0         0         0         0         0         0         0         0         0         0         0         0         0         0
         0         0         0         0         0         0         0         0         0         0         0         0         0         0         0         0         0         0         0         0
         0         0         0         0         0         0         0         0         0         0         0         0         0         0         0         0         0         0         0         0
         0         0         0         0         0         0         0         0         0         0         0         0         0         0         0         0         0         0         0         0
1
2
PG1A
1
0.0
EXTERNAL ex-prt-mp7-p01a.sloc
PG1B
1
0.0
EXTERNAL ex-prt-mp7-p01b.sloc
