# File generated by Flopy version 3.10.0.dev2 on 05/09/2025 at 15:29:04.
BEGIN options
END options

BEGIN griddata
  strt  LAYERED
    INTERNAL  FACTOR  1.0
           1.62500000       1.62500000       1.62500000       1.62500000       1.62500000       1.62500000       1.62500000       1.62500000       1.62500000       1.62500000       1.62500000       1.62500000       1.62500000       1.62500000       1.62500000       1.62500000       1.62500000       1.62500000       1.62500000       1.62500000       1.62500000       1.62500000       1.62500000       1.62500000       1.62500000       1.62500000       1.62500000       1.62500000       1.62500000       1.62500000       1.62500000       1.62500000       1.62500000       1.62500000       1.62500000       1.62500000       1.62500000       1.62500000       1.62500000       1.62500000
    INTERNAL  FACTOR  1.0
           1.62500000       1.62500000       1.62500000       1.62500000       1.62500000       1.62500000       1.62500000       1.62500000       1.62500000       1.62500000       1.62500000       1.62500000       1.62500000       1.62500000       1.62500000       1.62500000       1.62500000       1.62500000       1.62500000       1.62500000       1.62500000       1.62500000       1.62500000       1.62500000       1.62500000       1.62500000       1.62500000       1.62500000       1.62500000       1.62500000       1.62500000       1.62500000       1.62500000       1.62500000       1.62500000       1.62500000       1.62500000       1.62500000       1.62500000       1.62500000
    INTERNAL  FACTOR  1.0
           1.62500000       1.62500000       1.62500000       1.62500000       1.62500000       1.62500000       1.62500000       1.62500000       1.62500000       1.62500000       1.62500000       1.62500000       1.62500000       1.62500000       1.62500000       1.62500000       1.62500000       1.62500000       1.62500000       1.62500000       1.62500000       1.62500000       1.62500000       1.62500000       1.62500000       1.62500000       1.62500000       1.62500000       1.62500000       1.62500000       1.62500000       1.62500000       1.62500000       1.62500000       1.62500000       1.62500000       1.62500000       1.62500000       1.62500000       1.62500000
    INTERNAL  FACTOR  1.0
           1.62500000       1.62500000       1.62500000       1.62500000       1.62500000       1.62500000       1.62500000       1.62500000       1.62500000       1.62500000       1.62500000       1.62500000       1.62500000       1.62500000       1.62500000       1.62500000       1.62500000       1.62500000       1.62500000       1.62500000       1.62500000       1.62500000       1.62500000       1.62500000       1.62500000       1.62500000       1.62500000       1.62500000       1.62500000       1.62500000       1.62500000       1.62500000       1.62500000       1.62500000       1.62500000       1.62500000       1.62500000       1.62500000       1.62500000       1.62500000
    INTERNAL  FACTOR  1.0
           1.62500000       1.62500000       1.62500000       1.62500000       1.62500000       1.62500000       1.62500000       1.62500000       1.62500000       1.62500000       1.62500000       1.62500000       1.62500000       1.62500000       1.62500000       1.62500000       1.62500000       1.62500000       1.62500000       1.62500000       1.62500000       1.62500000       1.62500000       1.62500000       1.62500000       1.62500000       1.62500000       1.62500000       1.62500000       1.62500000       1.62500000       1.62500000       1.62500000       1.62500000       1.62500000       1.62500000       1.62500000       1.62500000       1.62500000       1.62500000
    INTERNAL  FACTOR  1.0
           1.62500000       1.62500000       1.62500000       1.62500000       1.62500000       1.62500000       1.62500000       1.62500000       1.62500000       1.62500000       1.62500000       1.62500000       1.62500000       1.62500000       1.62500000       1.62500000       1.62500000       1.62500000       1.62500000       1.62500000       1.62500000       1.62500000       1.62500000       1.62500000       1.62500000       1.62500000       1.62500000       1.62500000       1.62500000       1.62500000       1.62500000       1.62500000       1.62500000       1.62500000       1.62500000       1.62500000       1.62500000       1.62500000       1.62500000       1.62500000
    INTERNAL  FACTOR  1.0
           1.62500000       1.62500000       1.62500000       1.62500000       1.62500000       1.62500000       1.62500000       1.62500000       1.62500000       1.62500000       1.62500000       1.62500000       1.62500000       1.62500000       1.62500000       1.62500000       1.62500000       1.62500000       1.62500000       1.62500000       1.62500000       1.62500000       1.62500000       1.62500000       1.62500000       1.62500000       1.62500000       1.62500000       1.62500000       1.62500000       1.62500000       1.62500000       1.62500000       1.62500000       1.62500000       1.62500000       1.62500000       1.62500000       1.62500000       1.62500000
    INTERNAL  FACTOR  1.0
           1.62500000       1.62500000       1.62500000       1.62500000       1.62500000       1.62500000       1.62500000       1.62500000       1.62500000       1.62500000       1.62500000       1.62500000       1.62500000       1.62500000       1.62500000       1.62500000       1.62500000       1.62500000       1.62500000       1.62500000       1.62500000       1.62500000       1.62500000       1.62500000       1.62500000       1.62500000       1.62500000       1.62500000       1.62500000       1.62500000       1.62500000       1.62500000       1.62500000       1.62500000       1.62500000       1.62500000       1.62500000       1.62500000       1.62500000       1.62500000
    INTERNAL  FACTOR  1.0
           1.62500000       1.62500000       1.62500000       1.62500000       1.62500000       1.62500000       1.62500000       1.62500000       1.62500000       1.62500000       1.62500000       1.62500000       1.62500000       1.62500000       1.62500000       1.62500000       1.62500000       1.62500000       1.62500000       1.62500000       1.62500000       1.62500000       1.62500000       1.62500000       1.62500000       1.62500000       1.62500000       1.62500000       1.62500000       1.62500000       1.62500000       1.62500000       1.62500000       1.62500000       1.62500000       1.62500000       1.62500000       1.62500000       1.62500000       1.62500000
    INTERNAL  FACTOR  1.0
           1.62500000       1.62500000       1.62500000       1.62500000       1.62500000       1.62500000       1.62500000       1.62500000       1.62500000       1.62500000       1.62500000       1.62500000       1.62500000       1.62500000       1.62500000       1.62500000       1.62500000       1.62500000       1.62500000       1.62500000       1.62500000       1.62500000       1.62500000       1.62500000       1.62500000       1.62500000       1.62500000       1.62500000       1.62500000       1.62500000       1.62500000       1.62500000       1.62500000       1.62500000       1.62500000       1.62500000       1.62500000       1.62500000       1.62500000       1.62500000
    INTERNAL  FACTOR  1.0
           1.62500000       1.62500000       1.62500000       1.62500000       1.62500000       1.62500000       1.62500000       1.62500000       1.62500000       1.62500000       1.62500000       1.62500000       1.62500000       1.62500000       1.62500000       1.62500000       1.62500000       1.62500000       1.62500000       1.62500000       1.62500000       1.62500000       1.62500000       1.62500000       1.62500000       1.62500000       1.62500000       1.62500000       1.62500000       1.62500000       1.62500000       1.62500000       1.62500000       1.62500000       1.62500000       1.62500000       1.62500000       1.62500000       1.62500000       1.62500000
    INTERNAL  FACTOR  1.0
           1.62500000       1.62500000       1.62500000       1.62500000       1.62500000       1.62500000       1.62500000       1.62500000       1.62500000       1.62500000       1.62500000       1.62500000       1.62500000       1.62500000       1.62500000       1.62500000       1.62500000       1.62500000       1.62500000       1.62500000       1.62500000       1.62500000       1.62500000       1.62500000       1.62500000       1.62500000       1.62500000       1.62500000       1.62500000       1.62500000       1.62500000       1.62500000       1.62500000       1.62500000       1.62500000       1.62500000       1.62500000       1.62500000       1.62500000       1.62500000
    INTERNAL  FACTOR  1.0
           1.62500000       1.62500000       1.62500000       1.62500000       1.62500000       1.62500000       1.62500000       1.62500000       1.62500000       1.62500000       1.62500000       1.62500000       1.62500000       1.62500000       1.62500000       1.62500000       1.62500000       1.62500000       1.62500000       1.62500000       1.62500000       1.62500000       1.62500000       1.62500000       1.62500000       1.62500000       1.62500000       1.62500000       1.62500000       1.62500000       1.62500000       1.62500000       1.62500000       1.62500000       1.62500000       1.62500000       1.62500000       1.62500000       1.62500000       1.62500000
    INTERNAL  FACTOR  1.0
           1.62500000       1.62500000       1.62500000       1.62500000       1.62500000       1.62500000       1.62500000       1.62500000       1.62500000       1.62500000       1.62500000       1.62500000       1.62500000       1.62500000       1.62500000       1.62500000       1.62500000       1.62500000       1.62500000       1.62500000       1.62500000       1.62500000       1.62500000       1.62500000       1.62500000       1.62500000       1.62500000       1.62500000       1.62500000       1.62500000       1.62500000       1.62500000       1.62500000       1.62500000       1.62500000       1.62500000       1.62500000       1.62500000       1.62500000       1.62500000
    INTERNAL  FACTOR  1.0
           1.62500000       1.62500000       1.62500000       1.62500000       1.62500000       1.62500000       1.62500000       1.62500000       1.62500000       1.62500000       1.62500000       1.62500000       1.62500000       1.62500000       1.62500000       1.62500000       1.62500000       1.62500000       1.62500000       1.62500000       1.62500000       1.62500000       1.62500000       1.62500000       1.62500000       1.62500000       1.62500000       1.62500000       1.62500000       1.62500000       1.62500000       1.62500000       1.62500000       1.62500000       1.62500000       1.62500000       1.62500000       1.62500000       1.62500000       1.62500000
    INTERNAL  FACTOR  1.0
           1.62500000       1.62500000       1.62500000       1.62500000       1.62500000       1.62500000       1.62500000       1.62500000       1.62500000       1.62500000       1.62500000       1.62500000       1.62500000       1.62500000       1.62500000       1.62500000       1.62500000       1.62500000       1.62500000       1.62500000       1.62500000       1.62500000       1.62500000       1.62500000       1.62500000       1.62500000       1.62500000       1.62500000       1.62500000       1.62500000       1.62500000       1.62500000       1.62500000       1.62500000       1.62500000       1.62500000       1.62500000       1.62500000       1.62500000       1.62500000
    INTERNAL  FACTOR  1.0
           1.62500000       1.62500000       1.62500000       1.62500000       1.62500000       1.62500000       1.62500000       1.62500000       1.62500000       1.62500000       1.62500000       1.62500000       1.62500000       1.62500000       1.62500000       1.62500000       1.62500000       1.62500000       1.62500000       1.62500000       1.62500000       1.62500000       1.62500000       1.62500000       1.62500000       1.62500000       1.62500000       1.62500000       1.62500000       1.62500000       1.62500000       1.62500000       1.62500000       1.62500000       1.62500000       1.62500000       1.62500000       1.62500000       1.62500000       1.62500000
    INTERNAL  FACTOR  1.0
           1.62500000       1.62500000       1.62500000       1.62500000       1.62500000       1.62500000       1.62500000       1.62500000       1.62500000       1.62500000       1.62500000       1.62500000       1.62500000       1.62500000       1.62500000       1.62500000       1.62500000       1.62500000       1.62500000       1.62500000       1.62500000       1.62500000       1.62500000       1.62500000       1.62500000       1.62500000       1.62500000       1.62500000       1.62500000       1.62500000       1.62500000       1.62500000       1.62500000       1.62500000       1.62500000       1.62500000       1.62500000       1.62500000       1.62500000       1.62500000
    INTERNAL  FACTOR  1.0
           1.62500000       1.62500000       1.62500000       1.62500000       1.62500000       1.62500000       1.62500000       1.62500000       1.62500000       1.62500000       1.62500000       1.62500000       1.62500000       1.62500000       1.62500000       1.62500000       1.62500000       1.62500000       1.62500000       1.62500000       1.62500000       1.62500000       1.62500000       1.62500000       1.62500000       1.62500000       1.62500000       1.62500000       1.62500000       1.62500000       1.62500000       1.62500000       1.62500000       1.62500000       1.62500000       1.62500000       1.62500000       1.62500000       1.62500000       1.62500000
    INTERNAL  FACTOR  1.0
           1.62500000       1.62500000       1.62500000       1.62500000       1.62500000       1.62500000       1.62500000       1.62500000       1.62500000       1.62500000       1.62500000       1.62500000       1.62500000       1.62500000       1.62500000       1.62500000       1.62500000       1.62500000       1.62500000       1.62500000       1.62500000       1.62500000       1.62500000       1.62500000       1.62500000       1.62500000       1.62500000       1.62500000       1.62500000       1.62500000       1.62500000       1.62500000       1.62500000       1.62500000       1.62500000       1.62500000       1.62500000       1.62500000       1.62500000       1.62500000
END griddata

