# File generated by Flopy version 3.10.0.dev2 on 05/09/2025 at 15:29:04.
BEGIN options
  BUDGET  FILEOUT  gwt-uzt-2d-mf6.cbc
  CONCENTRATION  FILEOUT  gwt-uzt-2d-mf6.ucn
  CONCENTRATION  PRINT_FORMAT  COLUMNS  10  WIDTH  15  DIGITS  6  GENERAL
END options

BEGIN period  1
  SAVE  CONCENTRATION  ALL
  PRINT  CONCENTRATION  LAST
  PRINT  BUDGET  ALL
END period  1

