# File generated by Flopy version 3.10.0.dev2 on 05/09/2025 at 15:28:23.
BEGIN options
  SORPTION  linear
END options

BEGIN griddata
  porosity
    CONSTANT       0.25000000
  bulk_density
    CONSTANT       0.25000000
  distcoef
    CONSTANT       4.00000000
END griddata

