# File generated by Flopy version 3.10.0.dev2 on 05/09/2025 at 15:28:22.
BEGIN options
END options

BEGIN dimensions
  MAXBOUND  480
END dimensions

BEGIN period  1
  1 58 0.00000000E+00
  1 116 0.00000000E+00
  1 174 0.00000000E+00
  1 232 0.00000000E+00
  1 290 0.00000000E+00
  1 348 0.00000000E+00
  1 406 0.00000000E+00
  1 464 0.00000000E+00
  1 522 0.00000000E+00
  1 580 0.00000000E+00
  1 638 0.00000000E+00
  1 695 0.00000000E+00
  2 58 0.00000000E+00
  2 116 0.00000000E+00
  2 174 0.00000000E+00
  2 232 0.00000000E+00
  2 290 0.00000000E+00
  2 348 0.00000000E+00
  2 406 0.00000000E+00
  2 464 0.00000000E+00
  2 522 0.00000000E+00
  2 580 0.00000000E+00
  2 638 0.00000000E+00
  2 695 0.00000000E+00
  3 58 0.00000000E+00
  3 116 0.00000000E+00
  3 174 0.00000000E+00
  3 232 0.00000000E+00
  3 290 0.00000000E+00
  3 348 0.00000000E+00
  3 406 0.00000000E+00
  3 464 0.00000000E+00
  3 522 0.00000000E+00
  3 580 0.00000000E+00
  3 638 0.00000000E+00
  3 695 0.00000000E+00
  4 58 0.00000000E+00
  4 116 0.00000000E+00
  4 174 0.00000000E+00
  4 232 0.00000000E+00
  4 290 0.00000000E+00
  4 348 0.00000000E+00
  4 406 0.00000000E+00
  4 464 0.00000000E+00
  4 522 0.00000000E+00
  4 580 0.00000000E+00
  4 638 0.00000000E+00
  4 695 0.00000000E+00
  5 58 0.00000000E+00
  5 116 0.00000000E+00
  5 174 0.00000000E+00
  5 232 0.00000000E+00
  5 290 0.00000000E+00
  5 348 0.00000000E+00
  5 406 0.00000000E+00
  5 464 0.00000000E+00
  5 522 0.00000000E+00
  5 580 0.00000000E+00
  5 638 0.00000000E+00
  5 695 0.00000000E+00
  6 58 0.00000000E+00
  6 116 0.00000000E+00
  6 174 0.00000000E+00
  6 232 0.00000000E+00
  6 290 0.00000000E+00
  6 348 0.00000000E+00
  6 406 0.00000000E+00
  6 464 0.00000000E+00
  6 522 0.00000000E+00
  6 580 0.00000000E+00
  6 638 0.00000000E+00
  6 695 0.00000000E+00
  7 58 0.00000000E+00
  7 116 0.00000000E+00
  7 174 0.00000000E+00
  7 232 0.00000000E+00
  7 290 0.00000000E+00
  7 348 0.00000000E+00
  7 406 0.00000000E+00
  7 464 0.00000000E+00
  7 522 0.00000000E+00
  7 580 0.00000000E+00
  7 638 0.00000000E+00
  7 695 0.00000000E+00
  8 58 0.00000000E+00
  8 116 0.00000000E+00
  8 174 0.00000000E+00
  8 232 0.00000000E+00
  8 290 0.00000000E+00
  8 348 0.00000000E+00
  8 406 0.00000000E+00
  8 464 0.00000000E+00
  8 522 0.00000000E+00
  8 580 0.00000000E+00
  8 638 0.00000000E+00
  8 695 0.00000000E+00
  9 58 0.00000000E+00
  9 116 0.00000000E+00
  9 174 0.00000000E+00
  9 232 0.00000000E+00
  9 290 0.00000000E+00
  9 348 0.00000000E+00
  9 406 0.00000000E+00
  9 464 0.00000000E+00
  9 522 0.00000000E+00
  9 580 0.00000000E+00
  9 638 0.00000000E+00
  9 695 0.00000000E+00
  10 58 0.00000000E+00
  10 116 0.00000000E+00
  10 174 0.00000000E+00
  10 232 0.00000000E+00
  10 290 0.00000000E+00
  10 348 0.00000000E+00
  10 406 0.00000000E+00
  10 464 0.00000000E+00
  10 522 0.00000000E+00
  10 580 0.00000000E+00
  10 638 0.00000000E+00
  10 695 0.00000000E+00
  11 58 0.00000000E+00
  11 116 0.00000000E+00
  11 174 0.00000000E+00
  11 232 0.00000000E+00
  11 290 0.00000000E+00
  11 348 0.00000000E+00
  11 406 0.00000000E+00
  11 464 0.00000000E+00
  11 522 0.00000000E+00
  11 580 0.00000000E+00
  11 638 0.00000000E+00
  11 695 0.00000000E+00
  12 58 0.00000000E+00
  12 116 0.00000000E+00
  12 174 0.00000000E+00
  12 232 0.00000000E+00
  12 290 0.00000000E+00
  12 348 0.00000000E+00
  12 406 0.00000000E+00
  12 464 0.00000000E+00
  12 522 0.00000000E+00
  12 580 0.00000000E+00
  12 638 0.00000000E+00
  12 695 0.00000000E+00
  13 58 0.00000000E+00
  13 116 0.00000000E+00
  13 174 0.00000000E+00
  13 232 0.00000000E+00
  13 290 0.00000000E+00
  13 348 0.00000000E+00
  13 406 0.00000000E+00
  13 464 0.00000000E+00
  13 522 0.00000000E+00
  13 580 0.00000000E+00
  13 638 0.00000000E+00
  13 695 0.00000000E+00
  14 58 0.00000000E+00
  14 116 0.00000000E+00
  14 174 0.00000000E+00
  14 232 0.00000000E+00
  14 290 0.00000000E+00
  14 348 0.00000000E+00
  14 406 0.00000000E+00
  14 464 0.00000000E+00
  14 522 0.00000000E+00
  14 580 0.00000000E+00
  14 638 0.00000000E+00
  14 695 0.00000000E+00
  15 58 0.00000000E+00
  15 116 0.00000000E+00
  15 174 0.00000000E+00
  15 232 0.00000000E+00
  15 290 0.00000000E+00
  15 348 0.00000000E+00
  15 406 0.00000000E+00
  15 464 0.00000000E+00
  15 522 0.00000000E+00
  15 580 0.00000000E+00
  15 638 0.00000000E+00
  15 695 0.00000000E+00
  16 58 0.00000000E+00
  16 116 0.00000000E+00
  16 174 0.00000000E+00
  16 232 0.00000000E+00
  16 290 0.00000000E+00
  16 348 0.00000000E+00
  16 406 0.00000000E+00
  16 464 0.00000000E+00
  16 522 0.00000000E+00
  16 580 0.00000000E+00
  16 638 0.00000000E+00
  16 695 0.00000000E+00
  17 58 0.00000000E+00
  17 116 0.00000000E+00
  17 174 0.00000000E+00
  17 232 0.00000000E+00
  17 290 0.00000000E+00
  17 348 0.00000000E+00
  17 406 0.00000000E+00
  17 464 0.00000000E+00
  17 522 0.00000000E+00
  17 580 0.00000000E+00
  17 638 0.00000000E+00
  17 695 0.00000000E+00
  18 58 0.00000000E+00
  18 116 0.00000000E+00
  18 174 0.00000000E+00
  18 232 0.00000000E+00
  18 290 0.00000000E+00
  18 348 0.00000000E+00
  18 406 0.00000000E+00
  18 464 0.00000000E+00
  18 522 0.00000000E+00
  18 580 0.00000000E+00
  18 638 0.00000000E+00
  18 695 0.00000000E+00
  19 58 0.00000000E+00
  19 116 0.00000000E+00
  19 174 0.00000000E+00
  19 232 0.00000000E+00
  19 290 0.00000000E+00
  19 348 0.00000000E+00
  19 406 0.00000000E+00
  19 464 0.00000000E+00
  19 522 0.00000000E+00
  19 580 0.00000000E+00
  19 638 0.00000000E+00
  19 695 0.00000000E+00
  20 58 0.00000000E+00
  20 116 0.00000000E+00
  20 174 0.00000000E+00
  20 232 0.00000000E+00
  20 290 0.00000000E+00
  20 348 0.00000000E+00
  20 406 0.00000000E+00
  20 464 0.00000000E+00
  20 522 0.00000000E+00
  20 580 0.00000000E+00
  20 638 0.00000000E+00
  20 695 0.00000000E+00
  21 58 0.00000000E+00
  21 116 0.00000000E+00
  21 174 0.00000000E+00
  21 232 0.00000000E+00
  21 290 0.00000000E+00
  21 348 0.00000000E+00
  21 406 0.00000000E+00
  21 464 0.00000000E+00
  21 522 0.00000000E+00
  21 580 0.00000000E+00
  21 638 0.00000000E+00
  21 695 0.00000000E+00
  22 58 0.00000000E+00
  22 116 0.00000000E+00
  22 174 0.00000000E+00
  22 232 0.00000000E+00
  22 290 0.00000000E+00
  22 348 0.00000000E+00
  22 406 0.00000000E+00
  22 464 0.00000000E+00
  22 522 0.00000000E+00
  22 580 0.00000000E+00
  22 638 0.00000000E+00
  22 695 0.00000000E+00
  23 58 0.00000000E+00
  23 116 0.00000000E+00
  23 174 0.00000000E+00
  23 232 0.00000000E+00
  23 290 0.00000000E+00
  23 348 0.00000000E+00
  23 406 0.00000000E+00
  23 464 0.00000000E+00
  23 522 0.00000000E+00
  23 580 0.00000000E+00
  23 638 0.00000000E+00
  23 695 0.00000000E+00
  24 58 0.00000000E+00
  24 116 0.00000000E+00
  24 174 0.00000000E+00
  24 232 0.00000000E+00
  24 290 0.00000000E+00
  24 348 0.00000000E+00
  24 406 0.00000000E+00
  24 464 0.00000000E+00
  24 522 0.00000000E+00
  24 580 0.00000000E+00
  24 638 0.00000000E+00
  24 695 0.00000000E+00
  25 58 0.00000000E+00
  25 116 0.00000000E+00
  25 174 0.00000000E+00
  25 232 0.00000000E+00
  25 290 0.00000000E+00
  25 348 0.00000000E+00
  25 406 0.00000000E+00
  25 464 0.00000000E+00
  25 522 0.00000000E+00
  25 580 0.00000000E+00
  25 638 0.00000000E+00
  25 695 0.00000000E+00
  26 58 0.00000000E+00
  26 116 0.00000000E+00
  26 174 0.00000000E+00
  26 232 0.00000000E+00
  26 290 0.00000000E+00
  26 348 0.00000000E+00
  26 406 0.00000000E+00
  26 464 0.00000000E+00
  26 522 0.00000000E+00
  26 580 0.00000000E+00
  26 638 0.00000000E+00
  26 695 0.00000000E+00
  27 58 0.00000000E+00
  27 116 0.00000000E+00
  27 174 0.00000000E+00
  27 232 0.00000000E+00
  27 290 0.00000000E+00
  27 348 0.00000000E+00
  27 406 0.00000000E+00
  27 464 0.00000000E+00
  27 522 0.00000000E+00
  27 580 0.00000000E+00
  27 638 0.00000000E+00
  27 695 0.00000000E+00
  28 58 0.00000000E+00
  28 116 0.00000000E+00
  28 174 0.00000000E+00
  28 232 0.00000000E+00
  28 290 0.00000000E+00
  28 348 0.00000000E+00
  28 406 0.00000000E+00
  28 464 0.00000000E+00
  28 522 0.00000000E+00
  28 580 0.00000000E+00
  28 638 0.00000000E+00
  28 695 0.00000000E+00
  29 58 0.00000000E+00
  29 116 0.00000000E+00
  29 174 0.00000000E+00
  29 232 0.00000000E+00
  29 290 0.00000000E+00
  29 348 0.00000000E+00
  29 406 0.00000000E+00
  29 464 0.00000000E+00
  29 522 0.00000000E+00
  29 580 0.00000000E+00
  29 638 0.00000000E+00
  29 695 0.00000000E+00
  30 58 0.00000000E+00
  30 116 0.00000000E+00
  30 174 0.00000000E+00
  30 232 0.00000000E+00
  30 290 0.00000000E+00
  30 348 0.00000000E+00
  30 406 0.00000000E+00
  30 464 0.00000000E+00
  30 522 0.00000000E+00
  30 580 0.00000000E+00
  30 638 0.00000000E+00
  30 695 0.00000000E+00
  31 58 0.00000000E+00
  31 116 0.00000000E+00
  31 174 0.00000000E+00
  31 232 0.00000000E+00
  31 290 0.00000000E+00
  31 348 0.00000000E+00
  31 406 0.00000000E+00
  31 464 0.00000000E+00
  31 522 0.00000000E+00
  31 580 0.00000000E+00
  31 638 0.00000000E+00
  31 695 0.00000000E+00
  32 58 0.00000000E+00
  32 116 0.00000000E+00
  32 174 0.00000000E+00
  32 232 0.00000000E+00
  32 290 0.00000000E+00
  32 348 0.00000000E+00
  32 406 0.00000000E+00
  32 464 0.00000000E+00
  32 522 0.00000000E+00
  32 580 0.00000000E+00
  32 638 0.00000000E+00
  32 695 0.00000000E+00
  33 58 0.00000000E+00
  33 116 0.00000000E+00
  33 174 0.00000000E+00
  33 232 0.00000000E+00
  33 290 0.00000000E+00
  33 348 0.00000000E+00
  33 406 0.00000000E+00
  33 464 0.00000000E+00
  33 522 0.00000000E+00
  33 580 0.00000000E+00
  33 638 0.00000000E+00
  33 695 0.00000000E+00
  34 58 0.00000000E+00
  34 116 0.00000000E+00
  34 174 0.00000000E+00
  34 232 0.00000000E+00
  34 290 0.00000000E+00
  34 348 0.00000000E+00
  34 406 0.00000000E+00
  34 464 0.00000000E+00
  34 522 0.00000000E+00
  34 580 0.00000000E+00
  34 638 0.00000000E+00
  34 695 0.00000000E+00
  35 58 0.00000000E+00
  35 116 0.00000000E+00
  35 174 0.00000000E+00
  35 232 0.00000000E+00
  35 290 0.00000000E+00
  35 348 0.00000000E+00
  35 406 0.00000000E+00
  35 464 0.00000000E+00
  35 522 0.00000000E+00
  35 580 0.00000000E+00
  35 638 0.00000000E+00
  35 695 0.00000000E+00
  36 58 0.00000000E+00
  36 116 0.00000000E+00
  36 174 0.00000000E+00
  36 232 0.00000000E+00
  36 290 0.00000000E+00
  36 348 0.00000000E+00
  36 406 0.00000000E+00
  36 464 0.00000000E+00
  36 522 0.00000000E+00
  36 580 0.00000000E+00
  36 638 0.00000000E+00
  36 695 0.00000000E+00
  37 58 0.00000000E+00
  37 116 0.00000000E+00
  37 174 0.00000000E+00
  37 232 0.00000000E+00
  37 290 0.00000000E+00
  37 348 0.00000000E+00
  37 406 0.00000000E+00
  37 464 0.00000000E+00
  37 522 0.00000000E+00
  37 580 0.00000000E+00
  37 638 0.00000000E+00
  37 695 0.00000000E+00
  38 58 0.00000000E+00
  38 116 0.00000000E+00
  38 174 0.00000000E+00
  38 232 0.00000000E+00
  38 290 0.00000000E+00
  38 348 0.00000000E+00
  38 406 0.00000000E+00
  38 464 0.00000000E+00
  38 522 0.00000000E+00
  38 580 0.00000000E+00
  38 638 0.00000000E+00
  38 695 0.00000000E+00
  39 58 0.00000000E+00
  39 116 0.00000000E+00
  39 174 0.00000000E+00
  39 232 0.00000000E+00
  39 290 0.00000000E+00
  39 348 0.00000000E+00
  39 406 0.00000000E+00
  39 464 0.00000000E+00
  39 522 0.00000000E+00
  39 580 0.00000000E+00
  39 638 0.00000000E+00
  39 695 0.00000000E+00
  40 58 0.00000000E+00
  40 116 0.00000000E+00
  40 174 0.00000000E+00
  40 232 0.00000000E+00
  40 290 0.00000000E+00
  40 348 0.00000000E+00
  40 406 0.00000000E+00
  40 464 0.00000000E+00
  40 522 0.00000000E+00
  40 580 0.00000000E+00
  40 638 0.00000000E+00
  40 695 0.00000000E+00
END period  1

