# File generated by Flopy version 3.10.0.dev2 on 05/09/2025 at 15:27:38.
BEGIN options
END options

BEGIN griddata
  alh
    CONSTANT       0.00000000
  ath1
    CONSTANT      28.46074790
  ath2
    CONSTANT      28.46074790
  ktw
    CONSTANT       0.60000000
  kts
    CONSTANT       0.06667000
END griddata

