# File generated by Flopy version 3.10.0.dev2 on 05/09/2025 at 15:27:38.
BEGIN options
  BUDGET  FILEOUT  gwe-barends.cbc
  TEMPERATURE  FILEOUT  gwe-barends.ucn
  TEMPERATURE  PRINT_FORMAT  COLUMNS  10  WIDTH  15  DIGITS  6  GENERAL
END options

BEGIN period  1
  SAVE  TEMPERATURE  LAST
  SAVE  BUDGET  LAST
  PRINT  BUDGET  LAST
END period  1

