# File generated by Flopy version 3.10.0.dev2 on 05/09/2025 at 15:27:38.
BEGIN options
  PRINT_FLOWS
  SAVE_FLOWS
END options

BEGIN dimensions
  MAXBOUND  100
END dimensions

BEGIN period  1
  101 1 1      30.00000000
  102 1 1      30.00000000
  103 1 1      30.00000000
  104 1 1      30.00000000
  105 1 1      30.00000000
  106 1 1      30.00000000
  107 1 1      30.00000000
  108 1 1      30.00000000
  109 1 1      30.00000000
  110 1 1      30.00000000
  111 1 1      30.00000000
  112 1 1      30.00000000
  113 1 1      30.00000000
  114 1 1      30.00000000
  115 1 1      30.00000000
  116 1 1      30.00000000
  117 1 1      30.00000000
  118 1 1      30.00000000
  119 1 1      30.00000000
  120 1 1      30.00000000
  121 1 1      30.00000000
  122 1 1      30.00000000
  123 1 1      30.00000000
  124 1 1      30.00000000
  125 1 1      30.00000000
  126 1 1      30.00000000
  127 1 1      30.00000000
  128 1 1      30.00000000
  129 1 1      30.00000000
  130 1 1      30.00000000
  131 1 1      30.00000000
  132 1 1      30.00000000
  133 1 1      30.00000000
  134 1 1      30.00000000
  135 1 1      30.00000000
  136 1 1      30.00000000
  137 1 1      30.00000000
  138 1 1      30.00000000
  139 1 1      30.00000000
  140 1 1      30.00000000
  141 1 1      30.00000000
  142 1 1      30.00000000
  143 1 1      30.00000000
  144 1 1      30.00000000
  145 1 1      30.00000000
  146 1 1      30.00000000
  147 1 1      30.00000000
  148 1 1      30.00000000
  149 1 1      30.00000000
  150 1 1      30.00000000
  151 1 1      30.00000000
  152 1 1      30.00000000
  153 1 1      30.00000000
  154 1 1      30.00000000
  155 1 1      30.00000000
  156 1 1      30.00000000
  157 1 1      30.00000000
  158 1 1      30.00000000
  159 1 1      30.00000000
  160 1 1      30.00000000
  161 1 1      30.00000000
  162 1 1      30.00000000
  163 1 1      30.00000000
  164 1 1      30.00000000
  165 1 1      30.00000000
  166 1 1      30.00000000
  167 1 1      30.00000000
  168 1 1      30.00000000
  169 1 1      30.00000000
  170 1 1      30.00000000
  171 1 1      30.00000000
  172 1 1      30.00000000
  173 1 1      30.00000000
  174 1 1      30.00000000
  175 1 1      30.00000000
  176 1 1      30.00000000
  177 1 1      30.00000000
  178 1 1      30.00000000
  179 1 1      30.00000000
  180 1 1      30.00000000
  181 1 1      30.00000000
  182 1 1      30.00000000
  183 1 1      30.00000000
  184 1 1      30.00000000
  185 1 1      30.00000000
  186 1 1      30.00000000
  187 1 1      30.00000000
  188 1 1      30.00000000
  189 1 1      30.00000000
  190 1 1      30.00000000
  191 1 1      30.00000000
  192 1 1      30.00000000
  193 1 1      30.00000000
  194 1 1      30.00000000
  195 1 1      30.00000000
  196 1 1      30.00000000
  197 1 1      30.00000000
  198 1 1      30.00000000
  199 1 1      30.00000000
  200 1 1      30.00000000
END period  1

