# File generated by Flopy version 3.10.0.dev2 on 05/09/2025 at 15:27:38.
BEGIN options
  LENGTH_UNITS  meters
  NOGRB
END options

BEGIN dimensions
  NLAY  200
  NROW  1
  NCOL  250
END dimensions

BEGIN griddata
  delr
    CONSTANT       4.00000000
  delc
    CONSTANT       1.00000000
  top
    CONSTANT     200.00000000
  botm  LAYERED
    CONSTANT     193.68000000
    CONSTANT     187.77000000
    CONSTANT     182.22000000
    CONSTANT     177.03000000
    CONSTANT     172.16000000
    CONSTANT     167.60000000
    CONSTANT     163.33000000
    CONSTANT     159.33000000
    CONSTANT     155.58000000
    CONSTANT     152.06000000
    CONSTANT     148.77000000
    CONSTANT     145.69000000
    CONSTANT     142.80000000
    CONSTANT     140.09000000
    CONSTANT     137.55000000
    CONSTANT     135.17000000
    CONSTANT     132.95000000
    CONSTANT     130.86000000
    CONSTANT     128.90000000
    CONSTANT     127.07000000
    CONSTANT     125.36000000
    CONSTANT     123.75000000
    CONSTANT     122.24000000
    CONSTANT     120.83000000
    CONSTANT     119.51000000
    CONSTANT     118.27000000
    CONSTANT     117.11000000
    CONSTANT     116.02000000
    CONSTANT     115.00000000
    CONSTANT     114.04000000
    CONSTANT     113.15000000
    CONSTANT     112.31000000
    CONSTANT     111.52000000
    CONSTANT     110.79000000
    CONSTANT     110.10000000
    CONSTANT     109.45000000
    CONSTANT     108.85000000
    CONSTANT     108.28000000
    CONSTANT     107.75000000
    CONSTANT     107.25000000
    CONSTANT     106.78000000
    CONSTANT     106.35000000
    CONSTANT     105.94000000
    CONSTANT     105.55000000
    CONSTANT     105.19000000
    CONSTANT     104.86000000
    CONSTANT     104.54000000
    CONSTANT     104.25000000
    CONSTANT     103.97000000
    CONSTANT     103.71000000
    CONSTANT     103.47000000
    CONSTANT     103.24000000
    CONSTANT     103.02000000
    CONSTANT     102.82000000
    CONSTANT     102.64000000
    CONSTANT     102.46000000
    CONSTANT     102.30000000
    CONSTANT     102.14000000
    CONSTANT     102.00000000
    CONSTANT     101.86000000
    CONSTANT     101.74000000
    CONSTANT     101.62000000
    CONSTANT     101.51000000
    CONSTANT     101.40000000
    CONSTANT     101.30000000
    CONSTANT     101.21000000
    CONSTANT     101.13000000
    CONSTANT     101.05000000
    CONSTANT     100.97000000
    CONSTANT     100.90000000
    CONSTANT     100.83000000
    CONSTANT     100.77000000
    CONSTANT     100.71000000
    CONSTANT     100.66000000
    CONSTANT     100.61000000
    CONSTANT     100.56000000
    CONSTANT     100.52000000
    CONSTANT     100.47000000
    CONSTANT     100.43000000
    CONSTANT     100.40000000
    CONSTANT     100.36000000
    CONSTANT     100.33000000
    CONSTANT     100.30000000
    CONSTANT     100.27000000
    CONSTANT     100.25000000
    CONSTANT     100.22000000
    CONSTANT     100.20000000
    CONSTANT     100.18000000
    CONSTANT     100.16000000
    CONSTANT     100.14000000
    CONSTANT     100.12000000
    CONSTANT     100.10000000
    CONSTANT     100.09000000
    CONSTANT     100.07000000
    CONSTANT     100.06000000
    CONSTANT     100.04000000
    CONSTANT     100.03000000
    CONSTANT     100.02000000
    CONSTANT     100.01000000
    CONSTANT     100.00000000
    CONSTANT      99.99000000
    CONSTANT      99.98000000
    CONSTANT      99.97000000
    CONSTANT      99.96000000
    CONSTANT      99.94000000
    CONSTANT      99.93000000
    CONSTANT      99.91000000
    CONSTANT      99.90000000
    CONSTANT      99.88000000
    CONSTANT      99.86000000
    CONSTANT      99.84000000
    CONSTANT      99.82000000
    CONSTANT      99.80000000
    CONSTANT      99.78000000
    CONSTANT      99.75000000
    CONSTANT      99.73000000
    CONSTANT      99.70000000
    CONSTANT      99.67000000
    CONSTANT      99.64000000
    CONSTANT      99.60000000
    CONSTANT      99.57000000
    CONSTANT      99.53000000
    CONSTANT      99.48000000
    CONSTANT      99.44000000
    CONSTANT      99.39000000
    CONSTANT      99.34000000
    CONSTANT      99.29000000
    CONSTANT      99.23000000
    CONSTANT      99.17000000
    CONSTANT      99.10000000
    CONSTANT      99.03000000
    CONSTANT      98.95000000
    CONSTANT      98.87000000
    CONSTANT      98.79000000
    CONSTANT      98.70000000
    CONSTANT      98.60000000
    CONSTANT      98.49000000
    CONSTANT      98.38000000
    CONSTANT      98.26000000
    CONSTANT      98.14000000
    CONSTANT      98.00000000
    CONSTANT      97.86000000
    CONSTANT      97.70000000
    CONSTANT      97.54000000
    CONSTANT      97.36000000
    CONSTANT      97.18000000
    CONSTANT      96.98000000
    CONSTANT      96.76000000
    CONSTANT      96.53000000
    CONSTANT      96.29000000
    CONSTANT      96.03000000
    CONSTANT      95.75000000
    CONSTANT      95.46000000
    CONSTANT      95.14000000
    CONSTANT      94.81000000
    CONSTANT      94.45000000
    CONSTANT      94.06000000
    CONSTANT      93.65000000
    CONSTANT      93.22000000
    CONSTANT      92.75000000
    CONSTANT      92.25000000
    CONSTANT      91.72000000
    CONSTANT      91.15000000
    CONSTANT      90.55000000
    CONSTANT      89.90000000
    CONSTANT      89.21000000
    CONSTANT      88.48000000
    CONSTANT      87.69000000
    CONSTANT      86.85000000
    CONSTANT      85.96000000
    CONSTANT      85.00000000
    CONSTANT      83.98000000
    CONSTANT      82.89000000
    CONSTANT      81.73000000
    CONSTANT      80.49000000
    CONSTANT      79.17000000
    CONSTANT      77.76000000
    CONSTANT      76.25000000
    CONSTANT      74.64000000
    CONSTANT      72.93000000
    CONSTANT      71.10000000
    CONSTANT      69.14000000
    CONSTANT      67.05000000
    CONSTANT      64.83000000
    CONSTANT      62.45000000
    CONSTANT      59.91000000
    CONSTANT      57.20000000
    CONSTANT      54.31000000
    CONSTANT      51.23000000
    CONSTANT      47.94000000
    CONSTANT      44.42000000
    CONSTANT      40.67000000
    CONSTANT      36.67000000
    CONSTANT      32.40000000
    CONSTANT      27.84000000
    CONSTANT      22.97000000
    CONSTANT      17.78000000
    CONSTANT      12.23000000
    CONSTANT       6.32000000
    CONSTANT       0.00000000
  idomain
    CONSTANT  1
END griddata

