# File generated by Flopy version 3.10.0.dev2 on 05/09/2025 at 15:28:28.
BEGIN options
  auxiliary  CONCENTRATION
  PRINT_INPUT
  PRINT_FLOWS
END options

BEGIN dimensions
  MAXBOUND  1
END dimensions

BEGIN period  1
  1 16 16 1.00000000E+02 0.00000000E+00
END period  1

