# File generated by Flopy version 3.10.0.dev2 on 05/09/2025 at 15:28:22.
BEGIN options
END options

BEGIN griddata
  alh
    CONSTANT       0.60000000
  ath1
    CONSTANT       0.03000000
  ath2
    CONSTANT       0.00600000
END griddata

