# File generated by Flopy version 3.10.0.dev2 on 05/09/2025 at 15:28:22.
BEGIN options
END options

BEGIN dimensions
  MAXBOUND  1
END dimensions

BEGIN period  1
  1 652       2.50000000
END period  1

