# File generated by Flopy version 3.10.0.dev2 on 05/09/2025 at 15:27:51.
BEGIN options
END options

BEGIN continuous  FILEOUT  ex-gwf-lak-p01.gwf.obs.csv
  A  head  1 4 4
  B  head  1 14 14
END continuous  FILEOUT  ex-gwf-lak-p01.gwf.obs.csv

