# File generated by Flopy version 3.10.0.dev2 on 05/09/2025 at 15:27:51.
BEGIN options
END options

BEGIN griddata
  iconvert
    CONSTANT  1
  ss
    CONSTANT  3.00000000E-04
  sy
    CONSTANT       0.20000000
END griddata

