# File generated by Flopy version 3.10.0.dev2 on 05/09/2025 at 15:27:51.
BEGIN options
  SAVE_SPECIFIC_DISCHARGE
END options

BEGIN griddata
  icelltype
    CONSTANT  1
  k
    CONSTANT      30.00000000
  k33  LAYERED
    CONSTANT    1179.00000000
    CONSTANT      30.00000000
    CONSTANT      30.00000000
    CONSTANT      30.00000000
    CONSTANT      30.00000000
END griddata

