# File generated by Flopy version 3.10.0.dev2 on 05/09/2025 at 15:27:51.
BEGIN options
  SAVE_FLOWS
  NEWTON
END options

BEGIN packages
  DIS6  ex-gwf-lak-p01.dis  dis
  OBS6  ex-gwf-lak-p01.gwf.obs  obs_0
  NPF6  ex-gwf-lak-p01.npf  npf
  STO6  ex-gwf-lak-p01.sto  sto
  IC6  ex-gwf-lak-p01.ic  ic
  CHD6  ex-gwf-lak-p01.chd  chd_0
  RCH6  ex-gwf-lak-p01.rcha  rcha_0
  EVT6  ex-gwf-lak-p01.evta  evta_0
  LAK6  ex-gwf-lak-p01.lak  lak_0
  OC6  ex-gwf-lak-p01.oc  oc
END packages

