# File generated by Flopy version 3.10.0.dev2 on 05/09/2025 at 15:27:51.
BEGIN options
  TIME_UNITS  days
END options

BEGIN dimensions
  NPER  1
END dimensions

BEGIN perioddata
    5000.00000000  100       1.02000000
END perioddata

