# File generated by Flopy version 3.10.0.dev2 on 05/09/2025 at 15:27:51.
BEGIN options
END options

BEGIN timing
  TDIS6  ex-gwf-lak-p01.tdis
END timing

BEGIN models
  gwf6  ex-gwf-lak-p01.nam  ex-gwf-lak-p01
END models

BEGIN exchanges
END exchanges

BEGIN solutiongroup  1
  ims6  ex-gwf-lak-p01.ims  ex-gwf-lak-p01
END solutiongroup  1

