# MPSIM package for MODPATH 7 generated by Flopy 3.9.3
modpath_CSW134.mpnam
modpath_CSW134.mplst
2 2 2 2 1 0
modpath_CSW134.mpend
modpath_CSW134.mppth
0
1
0
2
1
1
1
PG1
1
0.0
INTERNAL
1
1
1 0
         1        51        51             0.5             0.5             0.5               0         0
