# File generated by Flopy version 3.10.0.dev2 on 05/09/2025 at 15:28:29.
BEGIN options
  TIME_UNITS  days
END options

BEGIN dimensions
  NPER  2
END dimensions

BEGIN perioddata
     912.50000000  365       1.00000000
    2737.50000000  1095       1.00000000
END perioddata

