# File generated by Flopy version 3.10.0.dev2 on 05/09/2025 at 15:28:29.
BEGIN options
  SAVE_FLOWS
END options

BEGIN packages
  DIS6  gwt_p06-mf6.dis  dis
  IC6  gwt_p06-mf6.ic  ic
  ADV6  gwt_p06-mf6.adv  adv
  DSP6  gwt_p06-mf6.dsp  dsp
  MST6  gwt_p06-mf6.mst  mst
  SSM6  gwt_p06-mf6.ssm  ssm
  OC6  gwt_p06-mf6.oc  oc
  OBS6  gwt_p06-mf6.obs  obs_0
END packages

