# File generated by Flopy version 3.10.0.dev2 on 05/09/2025 at 15:28:37.
BEGIN options
  auxiliary  CONCENTRATION
  PRINT_INPUT
  PRINT_HEAD
  PRINT_FLOWS
  SAVE_FLOWS
  HEAD  FILEOUT  flow.maw.hds
  BUDGET  FILEOUT  flow.maw.bud
  NO_WELL_STORAGE
  MOVER
END options

BEGIN dimensions
  NMAWWELLS  4
END dimensions

BEGIN packagedata
  1       0.01000000       0.00000000       0.00000000  THIEM  1    1000.00000000
  2       0.01000000       0.00000000       0.00000000  THIEM  1    1000.00000000
  3       0.01000000       0.00000000       0.00000000  THIEM  1    1000.00000000
  4       0.01000000       0.00000000       0.00000000  THIEM  1    1000.00000000
END packagedata

BEGIN connectiondata
  1  1  1 16 16      10.00000000       0.00000000      10.00000000       0.10000000
  2  1  1 16 21      10.00000000       0.00000000      10.00000000       0.10000000
  3  1  1 5 16      10.00000000       0.00000000      10.00000000       0.10000000
  4  1  1 27 16      10.00000000       0.00000000      10.00000000       0.10000000
END connectiondata

BEGIN period  1
  1  rate       1.00000000
  2  rate      -1.00000000
END period  1

