# File generated by Flopy version 3.10.0.dev2 on 05/09/2025 at 15:27:39.
BEGIN options
END options

BEGIN timing
  TDIS6  ex-gwf-csub-p02c.tdis
END timing

BEGIN models
  gwf6  ex-gwf-csub-p02c.nam  ex-gwf-csub-p02c
END models

BEGIN exchanges
END exchanges

BEGIN solutiongroup  1
  ims6  ex-gwf-csub-p02c.ims  ex-gwf-csub-p02c
END solutiongroup  1

