# File generated by Flopy version 3.10.0.dev2 on 05/09/2025 at 15:28:25.
BEGIN options
END options

BEGIN griddata
  porosity
    CONSTANT       1.95700000
END griddata

