# File generated by Flopy version 3.10.0.dev2 on 05/09/2025 at 15:28:25.
BEGIN options
END options

BEGIN griddata
  porosity
    CONSTANT       1.95700000
  volfrac
    CONSTANT       0.81093510
  zetaim
    CONSTANT      20.00000000
END griddata

