# File generated by Flopy version 3.10.0.dev2 on 05/09/2025 at 15:27:37.
BEGIN options
  auxiliary  TEMPERATURE
END options

BEGIN dimensions
  MAXBOUND  100
END dimensions

BEGIN period  1
  101 1 1 1.26490000E-10 30
  102 1 1 1.26490000E-10 30
  103 1 1 1.26490000E-10 30
  104 1 1 1.26490000E-10 30
  105 1 1 2.52980000E-10 30
  106 1 1 1.26490000E-10 30
  107 1 1 2.52980000E-10 30
  108 1 1 1.26490000E-10 30
  109 1 1 2.52980000E-10 30
  110 1 1 2.52980000E-10 30
  111 1 1 2.52980000E-10 30
  112 1 1 2.52980000E-10 30
  113 1 1 2.52980000E-10 30
  114 1 1 2.52980000E-10 30
  115 1 1 3.79470000E-10 30
  116 1 1 2.52980000E-10 30
  117 1 1 3.79470000E-10 30
  118 1 1 3.79470000E-10 30
  119 1 1 3.79470000E-10 30
  120 1 1 5.05960000E-10 30
  121 1 1 3.79470000E-10 30
  122 1 1 5.05960000E-10 30
  123 1 1 6.32450000E-10 30
  124 1 1 5.05960000E-10 30
  125 1 1 6.32450000E-10 30
  126 1 1 6.32450000E-10 30
  127 1 1 6.32450000E-10 30
  128 1 1 7.58940000E-10 30
  129 1 1 7.58940000E-10 30
  130 1 1 8.85430000E-10 30
  131 1 1 8.85430000E-10 30
  132 1 1 1.01192000E-09 30
  133 1 1 1.01192000E-09 30
  134 1 1 1.01192000E-09 30
  135 1 1 1.13841000E-09 30
  136 1 1 1.26490000E-09 30
  137 1 1 1.39139000E-09 30
  138 1 1 1.39139000E-09 30
  139 1 1 1.51788000E-09 30
  140 1 1 1.51788000E-09 30
  141 1 1 1.77086000E-09 30
  142 1 1 1.77086000E-09 30
  143 1 1 2.02384000E-09 30
  144 1 1 2.02384000E-09 30
  145 1 1 2.27682000E-09 30
  146 1 1 2.27682000E-09 30
  147 1 1 2.52980000E-09 30
  148 1 1 2.78278000E-09 30
  149 1 1 2.90927000E-09 30
  150 1 1 3.03576000E-09 30
  151 1 1 3.28874000E-09 30
  152 1 1 3.54172000E-09 30
  153 1 1 3.66821000E-09 30
  154 1 1 4.04768000E-09 30
  155 1 1 4.17417000E-09 30
  156 1 1 4.55364000E-09 30
  157 1 1 4.93311000E-09 30
  158 1 1 5.18609000E-09 30
  159 1 1 5.43907000E-09 30
  160 1 1 5.94503000E-09 30
  161 1 1 6.32450000E-09 30
  162 1 1 6.70397000E-09 30
  163 1 1 7.20993000E-09 30
  164 1 1 7.58940000E-09 30
  165 1 1 8.22185000E-09 30
  166 1 1 8.72781000E-09 30
  167 1 1 9.23377000E-09 30
  168 1 1 9.99271000E-09 30
  169 1 1 1.06251600E-08 30
  170 1 1 1.12576100E-08 30
  171 1 1 1.21430400E-08 30
  172 1 1 1.29019800E-08 30
  173 1 1 1.37874100E-08 30
  174 1 1 1.46728400E-08 30
  175 1 1 1.56847600E-08 30
  176 1 1 1.66966800E-08 30
  177 1 1 1.78350900E-08 30
  178 1 1 1.90999900E-08 30
  179 1 1 2.03648900E-08 30
  180 1 1 2.16297900E-08 30
  181 1 1 2.31476700E-08 30
  182 1 1 2.47920400E-08 30
  183 1 1 2.64364100E-08 30
  184 1 1 2.80807800E-08 30
  185 1 1 3.01046200E-08 30
  186 1 1 3.21284600E-08 30
  187 1 1 3.42787900E-08 30
  188 1 1 3.65556100E-08 30
  189 1 1 3.89589200E-08 30
  190 1 1 4.16152100E-08 30
  191 1 1 4.45244800E-08 30
  192 1 1 4.74337500E-08 30
  193 1 1 5.05960000E-08 30
  194 1 1 5.40112300E-08 30
  195 1 1 5.76794400E-08 30
  196 1 1 6.16006300E-08 30
  197 1 1 6.56483100E-08 30
  198 1 1 7.02019500E-08 30
  199 1 1 7.47555900E-08 30
  200 1 1 7.99416800E-08 30
END period  1

