# File generated by Flopy version 3.10.0.dev2 on 05/09/2025 at 15:27:38.
BEGIN options
END options

BEGIN dimensions
  MAXBOUND  100
END dimensions

BEGIN period  1
  101 1 250 -1.26490000E-10
  102 1 250 -1.26490000E-10
  103 1 250 -1.26490000E-10
  104 1 250 -1.26490000E-10
  105 1 250 -2.52980000E-10
  106 1 250 -1.26490000E-10
  107 1 250 -2.52980000E-10
  108 1 250 -1.26490000E-10
  109 1 250 -2.52980000E-10
  110 1 250 -2.52980000E-10
  111 1 250 -2.52980000E-10
  112 1 250 -2.52980000E-10
  113 1 250 -2.52980000E-10
  114 1 250 -2.52980000E-10
  115 1 250 -3.79470000E-10
  116 1 250 -2.52980000E-10
  117 1 250 -3.79470000E-10
  118 1 250 -3.79470000E-10
  119 1 250 -3.79470000E-10
  120 1 250 -5.05960000E-10
  121 1 250 -3.79470000E-10
  122 1 250 -5.05960000E-10
  123 1 250 -6.32450000E-10
  124 1 250 -5.05960000E-10
  125 1 250 -6.32450000E-10
  126 1 250 -6.32450000E-10
  127 1 250 -6.32450000E-10
  128 1 250 -7.58940000E-10
  129 1 250 -7.58940000E-10
  130 1 250 -8.85430000E-10
  131 1 250 -8.85430000E-10
  132 1 250 -1.01192000E-09
  133 1 250 -1.01192000E-09
  134 1 250 -1.01192000E-09
  135 1 250 -1.13841000E-09
  136 1 250 -1.26490000E-09
  137 1 250 -1.39139000E-09
  138 1 250 -1.39139000E-09
  139 1 250 -1.51788000E-09
  140 1 250 -1.51788000E-09
  141 1 250 -1.77086000E-09
  142 1 250 -1.77086000E-09
  143 1 250 -2.02384000E-09
  144 1 250 -2.02384000E-09
  145 1 250 -2.27682000E-09
  146 1 250 -2.27682000E-09
  147 1 250 -2.52980000E-09
  148 1 250 -2.78278000E-09
  149 1 250 -2.90927000E-09
  150 1 250 -3.03576000E-09
  151 1 250 -3.28874000E-09
  152 1 250 -3.54172000E-09
  153 1 250 -3.66821000E-09
  154 1 250 -4.04768000E-09
  155 1 250 -4.17417000E-09
  156 1 250 -4.55364000E-09
  157 1 250 -4.93311000E-09
  158 1 250 -5.18609000E-09
  159 1 250 -5.43907000E-09
  160 1 250 -5.94503000E-09
  161 1 250 -6.32450000E-09
  162 1 250 -6.70397000E-09
  163 1 250 -7.20993000E-09
  164 1 250 -7.58940000E-09
  165 1 250 -8.22185000E-09
  166 1 250 -8.72781000E-09
  167 1 250 -9.23377000E-09
  168 1 250 -9.99271000E-09
  169 1 250 -1.06251600E-08
  170 1 250 -1.12576100E-08
  171 1 250 -1.21430400E-08
  172 1 250 -1.29019800E-08
  173 1 250 -1.37874100E-08
  174 1 250 -1.46728400E-08
  175 1 250 -1.56847600E-08
  176 1 250 -1.66966800E-08
  177 1 250 -1.78350900E-08
  178 1 250 -1.90999900E-08
  179 1 250 -2.03648900E-08
  180 1 250 -2.16297900E-08
  181 1 250 -2.31476700E-08
  182 1 250 -2.47920400E-08
  183 1 250 -2.64364100E-08
  184 1 250 -2.80807800E-08
  185 1 250 -3.01046200E-08
  186 1 250 -3.21284600E-08
  187 1 250 -3.42787900E-08
  188 1 250 -3.65556100E-08
  189 1 250 -3.89589200E-08
  190 1 250 -4.16152100E-08
  191 1 250 -4.45244800E-08
  192 1 250 -4.74337500E-08
  193 1 250 -5.05960000E-08
  194 1 250 -5.40112300E-08
  195 1 250 -5.76794400E-08
  196 1 250 -6.16006300E-08
  197 1 250 -6.56483100E-08
  198 1 250 -7.02019500E-08
  199 1 250 -7.47555900E-08
  200 1 250 -7.99416800E-08
END period  1

