# File generated by Flopy version 3.10.0.dev2 on 05/09/2025 at 15:27:37.
BEGIN options
  SAVE_FLOWS
END options

BEGIN packages
  DIS6  gwf-barends.dis  dis
  NPF6  gwf-barends.npf  npf-1
  IC6  gwf-barends.ic  ic-1
  STO6  gwf-barends.sto  sto
  WEL6  gwf-barends.wel-left  wel-left
  WEL6  gwf-barends.wel-right  wel-right
  OC6  gwf-barends.oc  oc
END packages

