# File generated by Flopy version 3.10.0.dev2 on 05/09/2025 at 15:27:37.
BEGIN options
END options

BEGIN timing
  TDIS6  ex-gwe-barends.tdis
END timing

BEGIN models
  gwf6  gwf-barends.nam  gwf-barends
END models

BEGIN exchanges
END exchanges

BEGIN solutiongroup  1
  ims6  ex-gwe-barends.ims  gwf-barends
END solutiongroup  1

