# OC package for MODFLOW-NWT generated by Flopy 3.10.0.dev2
HEAD PRINT FORMAT   0
HEAD SAVE UNIT    51
DRAWDOWN PRINT FORMAT   0
COMPACT BUDGET AUX

period 1 step 120 
  save head
  save budget

