# RCH package for MODFLOW-2005 generated by Flopy 3.10.0.dev2
         3         0
         1        -1 # Stress period 1
CONSTANT    1.141552E-03                           #rech_1                        
