# OC package for MODFLOW-2005 generated by Flopy 3.10.0.dev2
HEAD PRINT FORMAT   0
HEAD SAVE UNIT    51
DRAWDOWN PRINT FORMAT   0
COMPACT BUDGET AUX

period 1 step 1 
  save head

period 1 step 50 
  save head

period 1 step 75 
  save head

period 1 step 100 
  save head

