# File generated by Flopy version 3.10.0.dev2 on 05/09/2025 at 15:28:27.
BEGIN options
END options

BEGIN griddata
  porosity
    CONSTANT       0.14000000
END griddata

