# File generated by Flopy version 3.10.0.dev2 on 05/09/2025 at 15:28:26.
BEGIN options
END options

BEGIN dimensions
  MAXBOUND  62
END dimensions

BEGIN period  1
  1 1 1 4.50000000E+01
  1 1 46 0.00000000E+00
  1 2 1 4.50000000E+01
  1 2 46 0.00000000E+00
  1 3 1 4.50000000E+01
  1 3 46 0.00000000E+00
  1 4 1 4.50000000E+01
  1 4 46 0.00000000E+00
  1 5 1 4.50000000E+01
  1 5 46 0.00000000E+00
  1 6 1 4.50000000E+01
  1 6 46 0.00000000E+00
  1 7 1 4.50000000E+01
  1 7 46 0.00000000E+00
  1 8 1 4.50000000E+01
  1 8 46 0.00000000E+00
  1 9 1 4.50000000E+01
  1 9 46 0.00000000E+00
  1 10 1 4.50000000E+01
  1 10 46 0.00000000E+00
  1 11 1 4.50000000E+01
  1 11 46 0.00000000E+00
  1 12 1 4.50000000E+01
  1 12 46 0.00000000E+00
  1 13 1 4.50000000E+01
  1 13 46 0.00000000E+00
  1 14 1 4.50000000E+01
  1 14 46 0.00000000E+00
  1 15 1 4.50000000E+01
  1 15 46 0.00000000E+00
  1 16 1 4.50000000E+01
  1 16 46 0.00000000E+00
  1 17 1 4.50000000E+01
  1 17 46 0.00000000E+00
  1 18 1 4.50000000E+01
  1 18 46 0.00000000E+00
  1 19 1 4.50000000E+01
  1 19 46 0.00000000E+00
  1 20 1 4.50000000E+01
  1 20 46 0.00000000E+00
  1 21 1 4.50000000E+01
  1 21 46 0.00000000E+00
  1 22 1 4.50000000E+01
  1 22 46 0.00000000E+00
  1 23 1 4.50000000E+01
  1 23 46 0.00000000E+00
  1 24 1 4.50000000E+01
  1 24 46 0.00000000E+00
  1 25 1 4.50000000E+01
  1 25 46 0.00000000E+00
  1 26 1 4.50000000E+01
  1 26 46 0.00000000E+00
  1 27 1 4.50000000E+01
  1 27 46 0.00000000E+00
  1 28 1 4.50000000E+01
  1 28 46 0.00000000E+00
  1 29 1 4.50000000E+01
  1 29 46 0.00000000E+00
  1 30 1 4.50000000E+01
  1 30 46 0.00000000E+00
  1 31 1 4.50000000E+01
  1 31 46 0.00000000E+00
END period  1

