# File generated by Flopy version 3.10.0.dev2 on 05/09/2025 at 15:28:26.
BEGIN options
END options

BEGIN dimensions
  NLAY  1
  NROW  31
  NCOL  46
END dimensions

BEGIN griddata
  delr
    CONSTANT      10.00000000
  delc
    CONSTANT      10.00000000
  top
    CONSTANT       0.00000000
  botm
    CONSTANT     -10.00000000
  idomain
    CONSTANT  1
END griddata

