# File generated by Flopy version 3.10.0.dev2 on 05/09/2025 at 15:28:26.
BEGIN options
END options

BEGIN dimensions
  MAXBOUND  1
END dimensions

BEGIN period  1
  1 1 1       0.00000000
END period  1

