# File generated by Flopy version 3.10.0.dev2 on 05/09/2025 at 15:27:40.
BEGIN options
END options

BEGIN griddata
  alh
    CONSTANT       0.00000000
  ath1
    CONSTANT       0.00000000
  ktw
    CONSTANT   51131.52000000
  kts
    CONSTANT   23328.00000000
END griddata

