# File generated by Flopy version 3.10.0.dev2 on 05/09/2025 at 15:27:40.
BEGIN options
  SAVE_FLOWS
  DENSITY_WATER    1000.00000000
  HEAT_CAPACITY_WATER    4183.00000000
  LATENT_HEAT_VAPORIZATION    2500.00000000
END options

BEGIN griddata
  porosity
    CONSTANT       0.20000000
  heat_capacity_solid
    CONSTANT     760.00000000
  density_solid
    CONSTANT    1500.00000000
END griddata

