# File generated by Flopy version 3.10.0.dev2 on 05/09/2025 at 15:27:40.
BEGIN options
  FLOW_PACKAGE_NAME  uzf-1
  PRINT_INPUT
  PRINT_TEMPERATURE
  PRINT_FLOWS
  SAVE_FLOWS
  TEMPERATURE  FILEOUT  gwe-danckwerts.uze.bin
  BUDGET  FILEOUT  gwe-danckwerts.uze.bud
END options

BEGIN packagedata
  1      10.00000000
  2      10.00000000
  3      10.00000000
  4      10.00000000
  5      10.00000000
  6      10.00000000
  7      10.00000000
  8      10.00000000
  9      10.00000000
  10      10.00000000
  11      10.00000000
  12      10.00000000
  13      10.00000000
  14      10.00000000
  15      10.00000000
  16      10.00000000
  17      10.00000000
  18      10.00000000
  19      10.00000000
  20      10.00000000
  21      10.00000000
  22      10.00000000
  23      10.00000000
  24      10.00000000
  25      10.00000000
  26      10.00000000
  27      10.00000000
  28      10.00000000
  29      10.00000000
  30      10.00000000
  31      10.00000000
  32      10.00000000
  33      10.00000000
  34      10.00000000
  35      10.00000000
  36      10.00000000
  37      10.00000000
  38      10.00000000
  39      10.00000000
  40      10.00000000
  41      10.00000000
  42      10.00000000
  43      10.00000000
  44      10.00000000
  45      10.00000000
  46      10.00000000
  47      10.00000000
  48      10.00000000
  49      10.00000000
  50      10.00000000
  51      10.00000000
  52      10.00000000
  53      10.00000000
  54      10.00000000
  55      10.00000000
  56      10.00000000
  57      10.00000000
  58      10.00000000
  59      10.00000000
  60      10.00000000
  61      10.00000000
  62      10.00000000
  63      10.00000000
  64      10.00000000
  65      10.00000000
  66      10.00000000
  67      10.00000000
  68      10.00000000
  69      10.00000000
  70      10.00000000
  71      10.00000000
  72      10.00000000
  73      10.00000000
  74      10.00000000
  75      10.00000000
  76      10.00000000
  77      10.00000000
  78      10.00000000
  79      10.00000000
  80      10.00000000
  81      10.00000000
  82      10.00000000
  83      10.00000000
  84      10.00000000
  85      10.00000000
  86      10.00000000
  87      10.00000000
  88      10.00000000
  89      10.00000000
  90      10.00000000
  91      10.00000000
  92      10.00000000
  93      10.00000000
  94      10.00000000
  95      10.00000000
  96      10.00000000
  97      10.00000000
  98      10.00000000
  99      10.00000000
  100      10.00000000
END packagedata

BEGIN period  1
  1  INFILTRATION  10.0
END period  1

BEGIN period  2
  1  INFILTRATION  20.0
END period  2

