# File generated by Flopy version 3.10.0.dev2 on 05/09/2025 at 15:27:40.
BEGIN options
  SAVE_FLOWS
  NEWTON  UNDER_RELAXATION
END options

BEGIN packages
  DIS6  gwf-danckwerts.dis  dis
  IC6  gwf-danckwerts.ic  ic
  NPF6  gwf-danckwerts.npf  npf
  STO6  gwf-danckwerts.sto  sto
  CHD6  gwf-danckwerts.chd  chd-1
  UZF6  gwf-danckwerts.uzf  uzf-1
  OC6  gwf-danckwerts.oc  oc
END packages

