# File generated by Flopy version 3.10.0.dev2 on 05/09/2025 at 15:27:40.
BEGIN options
END options

BEGIN timing
  TDIS6  ex-gwe-danckwerts.tdis
END timing

BEGIN models
  gwf6  gwf-danckwerts.nam  gwf-danckwerts
  gwe6  gwe-danckwerts.nam  gwe-danckwerts
END models

BEGIN exchanges
  GWF6-GWE6  gwe-danckwerts.gwfgwe  gwf-danckwerts  gwe-danckwerts
END exchanges

BEGIN solutiongroup  1
  ims6  gwf-danckwerts.ims  gwf-danckwerts
  ims6  gwe-danckwerts.ims  gwe-danckwerts
END solutiongroup  1

