# File generated by Flopy version 3.10.0.dev2 on 05/09/2025 at 15:28:17.
BEGIN options
  SAVE_FLOWS
END options

BEGIN packages
  DIS6  trans.dis  dis
  IC6  trans.ic  ic
  MST6  trans.mst  mst
  ADV6  trans.adv  adv
  DSP6  trans.dsp  dsp
  FMI6  trans.fmi  fmi
  SSM6  trans.ssm  ssm
  OC6  trans.oc  oc
  OBS6  trans.obs  obs_0
END packages

