# File generated by Flopy version 3.10.0.dev2 on 05/09/2025 at 15:29:29.
BEGIN options
  LENGTH_UNITS  feet
END options

BEGIN dimensions
  NLAY  5
  NROW  15
  NCOL  15
END dimensions

BEGIN griddata
  delr
    CONSTANT    5000.00000000
  delc
    CONSTANT    5000.00000000
  top
    CONSTANT     200.00000000
  botm  LAYERED
    CONSTANT    -150.00000000
    CONSTANT    -200.00000000
    CONSTANT    -300.00000000
    CONSTANT    -350.00000000
    CONSTANT    -450.00000000
END griddata

