# File generated by Flopy version 3.10.0.dev2 on 05/09/2025 at 15:29:29.
BEGIN options
END options

BEGIN dimensions
  MAXBOUND  9
END dimensions

BEGIN period  1
  1 8 2 0.00000000E+00 1.00000000E+00
  1 8 3 0.00000000E+00 1.00000000E+00
  1 8 4 1.00000000E+01 1.00000000E+00
  1 8 5 2.00000000E+01 1.00000000E+00
  1 8 6 3.00000000E+01 1.00000000E+00
  1 8 7 5.00000000E+01 1.00000000E+00
  1 8 8 7.00000000E+01 1.00000000E+00
  1 8 9 9.00000000E+01 1.00000000E+00
  1 8 10 1.00000000E+02 1.00000000E+00
END period  1

