# File generated by Flopy version 3.10.0.dev2 on 05/09/2025 at 15:28:54.
BEGIN options
END options

BEGIN dimensions
  MAXBOUND  2
END dimensions

BEGIN period  1
  1 1 1 6.00000000E+01
  120 1 1 5.97018010E+01
END period  1

BEGIN period  2
  1 1 1 6.00000000E+01
  120 1 1 5.97018010E+01
END period  2

BEGIN period  3
  1 1 1 6.00000000E+01
  120 1 1 5.97018010E+01
END period  3

BEGIN period  4
  1 1 1 6.00000000E+01
  120 1 1 5.97018010E+01
END period  4

BEGIN period  5
  1 1 1 6.00000000E+01
  120 1 1 5.97018010E+01
END period  5

BEGIN period  6
  1 1 1 6.00000000E+01
  120 1 1 5.97018010E+01
END period  6

BEGIN period  7
  1 1 1 6.00000000E+01
  120 1 1 5.97018010E+01
END period  7

BEGIN period  8
  1 1 1 6.00000000E+01
  120 1 1 5.97018010E+01
END period  8

BEGIN period  9
  1 1 1 6.00000000E+01
  120 1 1 5.97018010E+01
END period  9

BEGIN period  10
  1 1 1 6.00000000E+01
  120 1 1 5.97018010E+01
END period  10

BEGIN period  11
  1 1 1 6.00000000E+01
  120 1 1 5.97018010E+01
END period  11

BEGIN period  12
  1 1 1 6.00000000E+01
  120 1 1 5.97018010E+01
END period  12

BEGIN period  13
  1 1 1 6.00000000E+01
  120 1 1 5.97018010E+01
END period  13

BEGIN period  14
  1 1 1 6.00000000E+01
  120 1 1 5.97018010E+01
END period  14

BEGIN period  15
  1 1 1 6.00000000E+01
  120 1 1 5.97018010E+01
END period  15

BEGIN period  16
  1 1 1 6.00000000E+01
  120 1 1 5.97018010E+01
END period  16

BEGIN period  17
  1 1 1 6.00000000E+01
  120 1 1 5.97018010E+01
END period  17

BEGIN period  18
  1 1 1 6.00000000E+01
  120 1 1 5.97018010E+01
END period  18

BEGIN period  19
  1 1 1 6.00000000E+01
  120 1 1 5.97018010E+01
END period  19

BEGIN period  20
  1 1 1 6.00000000E+01
  120 1 1 5.97018010E+01
END period  20

BEGIN period  21
  1 1 1 6.00000000E+01
  120 1 1 5.97018010E+01
END period  21

BEGIN period  22
  1 1 1 6.00000000E+01
  120 1 1 5.97018010E+01
END period  22

BEGIN period  23
  1 1 1 6.00000000E+01
  120 1 1 5.97018010E+01
END period  23

BEGIN period  24
  1 1 1 6.00000000E+01
  120 1 1 5.97018010E+01
END period  24

BEGIN period  25
  1 1 1 6.00000000E+01
  120 1 1 5.97018010E+01
END period  25

BEGIN period  26
  1 1 1 6.00000000E+01
  120 1 1 5.97018010E+01
END period  26

BEGIN period  27
  1 1 1 6.00000000E+01
  120 1 1 5.97018010E+01
END period  27

BEGIN period  28
  1 1 1 6.00000000E+01
  120 1 1 5.97018010E+01
END period  28

BEGIN period  29
  1 1 1 6.00000000E+01
  120 1 1 5.97018010E+01
END period  29

BEGIN period  30
  1 1 1 6.00000000E+01
  120 1 1 5.97018010E+01
END period  30

BEGIN period  31
  1 1 1 6.00000000E+01
  120 1 1 5.97018010E+01
END period  31

BEGIN period  32
  1 1 1 6.00000000E+01
  120 1 1 5.97018010E+01
END period  32

BEGIN period  33
  1 1 1 6.00000000E+01
  120 1 1 5.97018010E+01
END period  33

BEGIN period  34
  1 1 1 6.00000000E+01
  120 1 1 5.97018010E+01
END period  34

BEGIN period  35
  1 1 1 6.00000000E+01
  120 1 1 5.97018010E+01
END period  35

BEGIN period  36
  1 1 1 6.00000000E+01
  120 1 1 5.97018010E+01
END period  36

BEGIN period  37
  1 1 1 6.00000000E+01
  120 1 1 5.97018010E+01
END period  37

BEGIN period  38
  1 1 1 6.00000000E+01
  120 1 1 5.97018010E+01
END period  38

BEGIN period  39
  1 1 1 6.00000000E+01
  120 1 1 5.97018010E+01
END period  39

BEGIN period  40
  1 1 1 6.00000000E+01
  120 1 1 5.97018010E+01
END period  40

BEGIN period  41
  1 1 1 6.00000000E+01
  120 1 1 5.97018010E+01
END period  41

BEGIN period  42
  1 1 1 6.00000000E+01
  120 1 1 5.97018010E+01
END period  42

BEGIN period  43
  1 1 1 6.00000000E+01
  120 1 1 5.97018010E+01
END period  43

BEGIN period  44
  1 1 1 6.00000000E+01
  120 1 1 5.97018010E+01
END period  44

BEGIN period  45
  1 1 1 6.00000000E+01
  120 1 1 5.97018010E+01
END period  45

BEGIN period  46
  1 1 1 6.00000000E+01
  120 1 1 5.97018010E+01
END period  46

BEGIN period  47
  1 1 1 6.00000000E+01
  120 1 1 5.97018010E+01
END period  47

BEGIN period  48
  1 1 1 6.00000000E+01
  120 1 1 5.97018010E+01
END period  48

BEGIN period  49
  1 1 1 6.00000000E+01
  120 1 1 5.97018010E+01
END period  49

BEGIN period  50
  1 1 1 6.00000000E+01
  120 1 1 5.97018010E+01
END period  50

BEGIN period  51
  1 1 1 6.00000000E+01
  120 1 1 5.97018010E+01
END period  51

BEGIN period  52
  1 1 1 6.00000000E+01
  120 1 1 5.97018010E+01
END period  52

BEGIN period  53
  1 1 1 6.00000000E+01
  120 1 1 5.97018010E+01
END period  53

BEGIN period  54
  1 1 1 6.00000000E+01
  120 1 1 5.97018010E+01
END period  54

BEGIN period  55
  1 1 1 6.00000000E+01
  120 1 1 5.97018010E+01
END period  55

BEGIN period  56
  1 1 1 6.00000000E+01
  120 1 1 5.97018010E+01
END period  56

BEGIN period  57
  1 1 1 6.00000000E+01
  120 1 1 5.97018010E+01
END period  57

BEGIN period  58
  1 1 1 6.00000000E+01
  120 1 1 5.97018010E+01
END period  58

BEGIN period  59
  1 1 1 6.00000000E+01
  120 1 1 5.97018010E+01
END period  59

BEGIN period  60
  1 1 1 6.00000000E+01
  120 1 1 5.97018010E+01
END period  60

BEGIN period  61
  1 1 1 6.00000000E+01
  120 1 1 5.97018010E+01
END period  61

BEGIN period  62
  1 1 1 6.00000000E+01
  120 1 1 5.97018010E+01
END period  62

BEGIN period  63
  1 1 1 6.00000000E+01
  120 1 1 5.97018010E+01
END period  63

BEGIN period  64
  1 1 1 6.00000000E+01
  120 1 1 5.97018010E+01
END period  64

BEGIN period  65
  1 1 1 6.00000000E+01
  120 1 1 5.97018010E+01
END period  65

BEGIN period  66
  1 1 1 6.00000000E+01
  120 1 1 5.97018010E+01
END period  66

BEGIN period  67
  1 1 1 6.00000000E+01
  120 1 1 5.97018010E+01
END period  67

BEGIN period  68
  1 1 1 6.00000000E+01
  120 1 1 5.97018010E+01
END period  68

BEGIN period  69
  1 1 1 6.00000000E+01
  120 1 1 5.97018010E+01
END period  69

BEGIN period  70
  1 1 1 6.00000000E+01
  120 1 1 5.97018010E+01
END period  70

BEGIN period  71
  1 1 1 6.00000000E+01
  120 1 1 5.97018010E+01
END period  71

BEGIN period  72
  1 1 1 6.00000000E+01
  120 1 1 5.97018010E+01
END period  72

BEGIN period  73
  1 1 1 6.00000000E+01
  120 1 1 5.97018010E+01
END period  73

BEGIN period  74
  1 1 1 6.00000000E+01
  120 1 1 5.97018010E+01
END period  74

BEGIN period  75
  1 1 1 6.00000000E+01
  120 1 1 5.97018010E+01
END period  75

BEGIN period  76
  1 1 1 6.00000000E+01
  120 1 1 5.97018010E+01
END period  76

BEGIN period  77
  1 1 1 6.00000000E+01
  120 1 1 5.97018010E+01
END period  77

BEGIN period  78
  1 1 1 6.00000000E+01
  120 1 1 5.97018010E+01
END period  78

BEGIN period  79
  1 1 1 6.00000000E+01
  120 1 1 5.97018010E+01
END period  79

BEGIN period  80
  1 1 1 6.00000000E+01
  120 1 1 5.97018010E+01
END period  80

BEGIN period  81
  1 1 1 6.00000000E+01
  120 1 1 5.97018010E+01
END period  81

BEGIN period  82
  1 1 1 6.00000000E+01
  120 1 1 5.97018010E+01
END period  82

BEGIN period  83
  1 1 1 6.00000000E+01
  120 1 1 5.97018010E+01
END period  83

BEGIN period  84
  1 1 1 6.00000000E+01
  120 1 1 5.97018010E+01
END period  84

BEGIN period  85
  1 1 1 6.00000000E+01
  120 1 1 5.97018010E+01
END period  85

BEGIN period  86
  1 1 1 6.00000000E+01
  120 1 1 5.97018010E+01
END period  86

BEGIN period  87
  1 1 1 6.00000000E+01
  120 1 1 5.97018010E+01
END period  87

BEGIN period  88
  1 1 1 6.00000000E+01
  120 1 1 5.97018010E+01
END period  88

BEGIN period  89
  1 1 1 6.00000000E+01
  120 1 1 5.97018010E+01
END period  89

BEGIN period  90
  1 1 1 6.00000000E+01
  120 1 1 5.97018010E+01
END period  90

BEGIN period  91
  1 1 1 6.00000000E+01
  120 1 1 5.97018010E+01
END period  91

BEGIN period  92
  1 1 1 6.00000000E+01
  120 1 1 5.97018010E+01
END period  92

BEGIN period  93
  1 1 1 6.00000000E+01
  120 1 1 5.97018010E+01
END period  93

BEGIN period  94
  1 1 1 6.00000000E+01
  120 1 1 5.97018010E+01
END period  94

BEGIN period  95
  1 1 1 6.00000000E+01
  120 1 1 5.97018010E+01
END period  95

BEGIN period  96
  1 1 1 6.00000000E+01
  120 1 1 5.97018010E+01
END period  96

BEGIN period  97
  1 1 1 6.00000000E+01
  120 1 1 5.97018010E+01
END period  97

BEGIN period  98
  1 1 1 6.00000000E+01
  120 1 1 5.97018010E+01
END period  98

BEGIN period  99
  1 1 1 6.00000000E+01
  120 1 1 5.97018010E+01
END period  99

BEGIN period  100
  1 1 1 6.00000000E+01
  120 1 1 5.97018010E+01
END period  100

BEGIN period  101
  1 1 1 6.00000000E+01
  120 1 1 5.97018010E+01
END period  101

BEGIN period  102
  1 1 1 6.00000000E+01
  120 1 1 5.97018010E+01
END period  102

BEGIN period  103
  1 1 1 6.00000000E+01
  120 1 1 5.97018010E+01
END period  103

BEGIN period  104
  1 1 1 6.00000000E+01
  120 1 1 5.97018010E+01
END period  104

BEGIN period  105
  1 1 1 6.00000000E+01
  120 1 1 5.97018010E+01
END period  105

BEGIN period  106
  1 1 1 6.00000000E+01
  120 1 1 5.97018010E+01
END period  106

BEGIN period  107
  1 1 1 6.00000000E+01
  120 1 1 5.97018010E+01
END period  107

BEGIN period  108
  1 1 1 6.00000000E+01
  120 1 1 5.97018010E+01
END period  108

BEGIN period  109
  1 1 1 6.00000000E+01
  120 1 1 5.97018010E+01
END period  109

BEGIN period  110
  1 1 1 6.00000000E+01
  120 1 1 5.97018010E+01
END period  110

BEGIN period  111
  1 1 1 6.00000000E+01
  120 1 1 5.97018010E+01
END period  111

BEGIN period  112
  1 1 1 6.00000000E+01
  120 1 1 5.97018010E+01
END period  112

BEGIN period  113
  1 1 1 6.00000000E+01
  120 1 1 5.97018010E+01
END period  113

BEGIN period  114
  1 1 1 6.00000000E+01
  120 1 1 5.97018010E+01
END period  114

BEGIN period  115
  1 1 1 6.00000000E+01
  120 1 1 5.97018010E+01
END period  115

BEGIN period  116
  1 1 1 6.00000000E+01
  120 1 1 5.97018010E+01
END period  116

BEGIN period  117
  1 1 1 6.00000000E+01
  120 1 1 5.97018010E+01
END period  117

BEGIN period  118
  1 1 1 6.00000000E+01
  120 1 1 5.97018010E+01
END period  118

BEGIN period  119
  1 1 1 6.00000000E+01
  120 1 1 5.97018010E+01
END period  119

BEGIN period  120
  1 1 1 6.00000000E+01
  120 1 1 5.97018010E+01
END period  120

BEGIN period  121
  1 1 1 6.00000000E+01
  120 1 1 5.97018010E+01
END period  121

BEGIN period  122
  1 1 1 6.00000000E+01
  120 1 1 5.97018010E+01
END period  122

BEGIN period  123
  1 1 1 6.00000000E+01
  120 1 1 5.97018010E+01
END period  123

BEGIN period  124
  1 1 1 6.00000000E+01
  120 1 1 5.97018010E+01
END period  124

BEGIN period  125
  1 1 1 6.00000000E+01
  120 1 1 5.97018010E+01
END period  125

BEGIN period  126
  1 1 1 6.00000000E+01
  120 1 1 5.97018010E+01
END period  126

BEGIN period  127
  1 1 1 6.00000000E+01
  120 1 1 5.97018010E+01
END period  127

BEGIN period  128
  1 1 1 6.00000000E+01
  120 1 1 5.97018010E+01
END period  128

BEGIN period  129
  1 1 1 6.00000000E+01
  120 1 1 5.97018010E+01
END period  129

BEGIN period  130
  1 1 1 6.00000000E+01
  120 1 1 5.97018010E+01
END period  130

BEGIN period  131
  1 1 1 6.00000000E+01
  120 1 1 5.97018010E+01
END period  131

BEGIN period  132
  1 1 1 6.00000000E+01
  120 1 1 5.97018010E+01
END period  132

BEGIN period  133
  1 1 1 6.00000000E+01
  120 1 1 5.97018010E+01
END period  133

BEGIN period  134
  1 1 1 6.00000000E+01
  120 1 1 5.97018010E+01
END period  134

BEGIN period  135
  1 1 1 6.00000000E+01
  120 1 1 5.97018010E+01
END period  135

BEGIN period  136
  1 1 1 6.00000000E+01
  120 1 1 5.97018010E+01
END period  136

BEGIN period  137
  1 1 1 6.00000000E+01
  120 1 1 5.97018010E+01
END period  137

BEGIN period  138
  1 1 1 6.00000000E+01
  120 1 1 5.97018010E+01
END period  138

BEGIN period  139
  1 1 1 6.00000000E+01
  120 1 1 5.97018010E+01
END period  139

BEGIN period  140
  1 1 1 6.00000000E+01
  120 1 1 5.97018010E+01
END period  140

BEGIN period  141
  1 1 1 6.00000000E+01
  120 1 1 5.97018010E+01
END period  141

BEGIN period  142
  1 1 1 6.00000000E+01
  120 1 1 5.97018010E+01
END period  142

BEGIN period  143
  1 1 1 6.00000000E+01
  120 1 1 5.97018010E+01
END period  143

BEGIN period  144
  1 1 1 6.00000000E+01
  120 1 1 5.97018010E+01
END period  144

BEGIN period  145
  1 1 1 6.00000000E+01
  120 1 1 5.97018010E+01
END period  145

BEGIN period  146
  1 1 1 6.00000000E+01
  120 1 1 5.97018010E+01
END period  146

BEGIN period  147
  1 1 1 6.00000000E+01
  120 1 1 5.97018010E+01
END period  147

BEGIN period  148
  1 1 1 6.00000000E+01
  120 1 1 5.97018010E+01
END period  148

BEGIN period  149
  1 1 1 6.00000000E+01
  120 1 1 5.97018010E+01
END period  149

BEGIN period  150
  1 1 1 6.00000000E+01
  120 1 1 5.97018010E+01
END period  150

BEGIN period  151
  1 1 1 6.00000000E+01
  120 1 1 5.97018010E+01
END period  151

BEGIN period  152
  1 1 1 6.00000000E+01
  120 1 1 5.97018010E+01
END period  152

BEGIN period  153
  1 1 1 6.00000000E+01
  120 1 1 5.97018010E+01
END period  153

BEGIN period  154
  1 1 1 6.00000000E+01
  120 1 1 5.97018010E+01
END period  154

BEGIN period  155
  1 1 1 6.00000000E+01
  120 1 1 5.97018010E+01
END period  155

BEGIN period  156
  1 1 1 6.00000000E+01
  120 1 1 5.97018010E+01
END period  156

BEGIN period  157
  1 1 1 6.00000000E+01
  120 1 1 5.97018010E+01
END period  157

BEGIN period  158
  1 1 1 6.00000000E+01
  120 1 1 5.97018010E+01
END period  158

BEGIN period  159
  1 1 1 6.00000000E+01
  120 1 1 5.97018010E+01
END period  159

BEGIN period  160
  1 1 1 6.00000000E+01
  120 1 1 5.97018010E+01
END period  160

BEGIN period  161
  1 1 1 6.00000000E+01
  120 1 1 5.97018010E+01
END period  161

BEGIN period  162
  1 1 1 6.00000000E+01
  120 1 1 5.97018010E+01
END period  162

BEGIN period  163
  1 1 1 6.00000000E+01
  120 1 1 5.97018010E+01
END period  163

BEGIN period  164
  1 1 1 6.00000000E+01
  120 1 1 5.97018010E+01
END period  164

BEGIN period  165
  1 1 1 6.00000000E+01
  120 1 1 5.97018010E+01
END period  165

BEGIN period  166
  1 1 1 6.00000000E+01
  120 1 1 5.97018010E+01
END period  166

BEGIN period  167
  1 1 1 6.00000000E+01
  120 1 1 5.97018010E+01
END period  167

BEGIN period  168
  1 1 1 6.00000000E+01
  120 1 1 5.97018010E+01
END period  168

BEGIN period  169
  1 1 1 6.00000000E+01
  120 1 1 5.97018010E+01
END period  169

BEGIN period  170
  1 1 1 6.00000000E+01
  120 1 1 5.97018010E+01
END period  170

BEGIN period  171
  1 1 1 6.00000000E+01
  120 1 1 5.97018010E+01
END period  171

BEGIN period  172
  1 1 1 6.00000000E+01
  120 1 1 5.97018010E+01
END period  172

BEGIN period  173
  1 1 1 6.00000000E+01
  120 1 1 5.97018010E+01
END period  173

BEGIN period  174
  1 1 1 6.00000000E+01
  120 1 1 5.97018010E+01
END period  174

BEGIN period  175
  1 1 1 6.00000000E+01
  120 1 1 5.97018010E+01
END period  175

BEGIN period  176
  1 1 1 6.00000000E+01
  120 1 1 5.97018010E+01
END period  176

BEGIN period  177
  1 1 1 6.00000000E+01
  120 1 1 5.97018010E+01
END period  177

BEGIN period  178
  1 1 1 6.00000000E+01
  120 1 1 5.97018010E+01
END period  178

BEGIN period  179
  1 1 1 6.00000000E+01
  120 1 1 5.97018010E+01
END period  179

BEGIN period  180
  1 1 1 6.00000000E+01
  120 1 1 5.97018010E+01
END period  180

BEGIN period  181
  1 1 1 6.00000000E+01
  120 1 1 5.97018010E+01
END period  181

BEGIN period  182
  1 1 1 6.00000000E+01
  120 1 1 5.97018010E+01
END period  182

BEGIN period  183
  1 1 1 6.00000000E+01
  120 1 1 5.97018010E+01
END period  183

BEGIN period  184
  1 1 1 6.00000000E+01
  120 1 1 5.97018010E+01
END period  184

BEGIN period  185
  1 1 1 6.00000000E+01
  120 1 1 5.97018010E+01
END period  185

BEGIN period  186
  1 1 1 6.00000000E+01
  120 1 1 5.97018010E+01
END period  186

BEGIN period  187
  1 1 1 6.00000000E+01
  120 1 1 5.97018010E+01
END period  187

BEGIN period  188
  1 1 1 6.00000000E+01
  120 1 1 5.97018010E+01
END period  188

BEGIN period  189
  1 1 1 6.00000000E+01
  120 1 1 5.97018010E+01
END period  189

BEGIN period  190
  1 1 1 6.00000000E+01
  120 1 1 5.97018010E+01
END period  190

BEGIN period  191
  1 1 1 6.00000000E+01
  120 1 1 5.97018010E+01
END period  191

BEGIN period  192
  1 1 1 6.00000000E+01
  120 1 1 5.97018010E+01
END period  192

BEGIN period  193
  1 1 1 6.00000000E+01
  120 1 1 5.97018010E+01
END period  193

BEGIN period  194
  1 1 1 6.00000000E+01
  120 1 1 5.97018010E+01
END period  194

BEGIN period  195
  1 1 1 6.00000000E+01
  120 1 1 5.97018010E+01
END period  195

BEGIN period  196
  1 1 1 6.00000000E+01
  120 1 1 5.97018010E+01
END period  196

BEGIN period  197
  1 1 1 6.00000000E+01
  120 1 1 5.97018010E+01
END period  197

BEGIN period  198
  1 1 1 6.00000000E+01
  120 1 1 5.97018010E+01
END period  198

BEGIN period  199
  1 1 1 6.00000000E+01
  120 1 1 5.97018010E+01
END period  199

BEGIN period  200
  1 1 1 6.00000000E+01
  120 1 1 5.97018010E+01
END period  200

BEGIN period  201
  1 1 1 6.00000000E+01
  120 1 1 5.97018010E+01
END period  201

BEGIN period  202
  1 1 1 6.00000000E+01
  120 1 1 5.97018010E+01
END period  202

BEGIN period  203
  1 1 1 6.00000000E+01
  120 1 1 5.97018010E+01
END period  203

BEGIN period  204
  1 1 1 6.00000000E+01
  120 1 1 5.97018010E+01
END period  204

BEGIN period  205
  1 1 1 6.00000000E+01
  120 1 1 5.97018010E+01
END period  205

BEGIN period  206
  1 1 1 6.00000000E+01
  120 1 1 5.97018010E+01
END period  206

BEGIN period  207
  1 1 1 6.00000000E+01
  120 1 1 5.97018010E+01
END period  207

BEGIN period  208
  1 1 1 6.00000000E+01
  120 1 1 5.97018010E+01
END period  208

BEGIN period  209
  1 1 1 6.00000000E+01
  120 1 1 5.97018010E+01
END period  209

BEGIN period  210
  1 1 1 6.00000000E+01
  120 1 1 5.97018010E+01
END period  210

BEGIN period  211
  1 1 1 6.00000000E+01
  120 1 1 5.97018010E+01
END period  211

BEGIN period  212
  1 1 1 6.00000000E+01
  120 1 1 5.97018010E+01
END period  212

BEGIN period  213
  1 1 1 6.00000000E+01
  120 1 1 5.97018010E+01
END period  213

BEGIN period  214
  1 1 1 6.00000000E+01
  120 1 1 5.97018010E+01
END period  214

BEGIN period  215
  1 1 1 6.00000000E+01
  120 1 1 5.97018010E+01
END period  215

BEGIN period  216
  1 1 1 6.00000000E+01
  120 1 1 5.97018010E+01
END period  216

BEGIN period  217
  1 1 1 6.00000000E+01
  120 1 1 5.97018010E+01
END period  217

BEGIN period  218
  1 1 1 6.00000000E+01
  120 1 1 5.97018010E+01
END period  218

BEGIN period  219
  1 1 1 6.00000000E+01
  120 1 1 5.97018010E+01
END period  219

BEGIN period  220
  1 1 1 6.00000000E+01
  120 1 1 5.97018010E+01
END period  220

BEGIN period  221
  1 1 1 6.00000000E+01
  120 1 1 5.97018010E+01
END period  221

BEGIN period  222
  1 1 1 6.00000000E+01
  120 1 1 5.97018010E+01
END period  222

BEGIN period  223
  1 1 1 6.00000000E+01
  120 1 1 5.97018010E+01
END period  223

BEGIN period  224
  1 1 1 6.00000000E+01
  120 1 1 5.97018010E+01
END period  224

BEGIN period  225
  1 1 1 6.00000000E+01
  120 1 1 5.97018010E+01
END period  225

BEGIN period  226
  1 1 1 6.00000000E+01
  120 1 1 5.97018010E+01
END period  226

BEGIN period  227
  1 1 1 6.00000000E+01
  120 1 1 5.97018010E+01
END period  227

BEGIN period  228
  1 1 1 6.00000000E+01
  120 1 1 5.97018010E+01
END period  228

BEGIN period  229
  1 1 1 6.00000000E+01
  120 1 1 5.97018010E+01
END period  229

BEGIN period  230
  1 1 1 6.00000000E+01
  120 1 1 5.97018010E+01
END period  230

BEGIN period  231
  1 1 1 6.00000000E+01
  120 1 1 5.97018010E+01
END period  231

BEGIN period  232
  1 1 1 6.00000000E+01
  120 1 1 5.97018010E+01
END period  232

BEGIN period  233
  1 1 1 6.00000000E+01
  120 1 1 5.97018010E+01
END period  233

BEGIN period  234
  1 1 1 6.00000000E+01
  120 1 1 5.97018010E+01
END period  234

BEGIN period  235
  1 1 1 6.00000000E+01
  120 1 1 5.97018010E+01
END period  235

BEGIN period  236
  1 1 1 6.00000000E+01
  120 1 1 5.97018010E+01
END period  236

BEGIN period  237
  1 1 1 6.00000000E+01
  120 1 1 5.97018010E+01
END period  237

BEGIN period  238
  1 1 1 6.00000000E+01
  120 1 1 5.97018010E+01
END period  238

BEGIN period  239
  1 1 1 6.00000000E+01
  120 1 1 5.97018010E+01
END period  239

BEGIN period  240
  1 1 1 6.00000000E+01
  120 1 1 5.97018010E+01
END period  240

BEGIN period  241
  1 1 1 6.00000000E+01
  120 1 1 5.97018010E+01
END period  241

BEGIN period  242
  1 1 1 6.00000000E+01
  120 1 1 5.97018010E+01
END period  242

BEGIN period  243
  1 1 1 6.00000000E+01
  120 1 1 5.97018010E+01
END period  243

BEGIN period  244
  1 1 1 6.00000000E+01
  120 1 1 5.97018010E+01
END period  244

BEGIN period  245
  1 1 1 6.00000000E+01
  120 1 1 5.97018010E+01
END period  245

BEGIN period  246
  1 1 1 6.00000000E+01
  120 1 1 5.97018010E+01
END period  246

BEGIN period  247
  1 1 1 6.00000000E+01
  120 1 1 5.97018010E+01
END period  247

BEGIN period  248
  1 1 1 6.00000000E+01
  120 1 1 5.97018010E+01
END period  248

BEGIN period  249
  1 1 1 6.00000000E+01
  120 1 1 5.97018010E+01
END period  249

BEGIN period  250
  1 1 1 6.00000000E+01
  120 1 1 5.97018010E+01
END period  250

BEGIN period  251
  1 1 1 6.00000000E+01
  120 1 1 5.97018010E+01
END period  251

BEGIN period  252
  1 1 1 6.00000000E+01
  120 1 1 5.97018010E+01
END period  252

BEGIN period  253
  1 1 1 6.00000000E+01
  120 1 1 5.97018010E+01
END period  253

BEGIN period  254
  1 1 1 6.00000000E+01
  120 1 1 5.97018010E+01
END period  254

BEGIN period  255
  1 1 1 6.00000000E+01
  120 1 1 5.97018010E+01
END period  255

BEGIN period  256
  1 1 1 6.00000000E+01
  120 1 1 5.97018010E+01
END period  256

BEGIN period  257
  1 1 1 6.00000000E+01
  120 1 1 5.97018010E+01
END period  257

BEGIN period  258
  1 1 1 6.00000000E+01
  120 1 1 5.97018010E+01
END period  258

BEGIN period  259
  1 1 1 6.00000000E+01
  120 1 1 5.97018010E+01
END period  259

BEGIN period  260
  1 1 1 6.00000000E+01
  120 1 1 5.97018010E+01
END period  260

BEGIN period  261
  1 1 1 6.00000000E+01
  120 1 1 5.97018010E+01
END period  261

BEGIN period  262
  1 1 1 6.00000000E+01
  120 1 1 5.97018010E+01
END period  262

BEGIN period  263
  1 1 1 6.00000000E+01
  120 1 1 5.97018010E+01
END period  263

BEGIN period  264
  1 1 1 6.00000000E+01
  120 1 1 5.97018010E+01
END period  264

BEGIN period  265
  1 1 1 6.00000000E+01
  120 1 1 5.97018010E+01
END period  265

BEGIN period  266
  1 1 1 6.00000000E+01
  120 1 1 5.97018010E+01
END period  266

BEGIN period  267
  1 1 1 6.00000000E+01
  120 1 1 5.97018010E+01
END period  267

BEGIN period  268
  1 1 1 6.00000000E+01
  120 1 1 5.97018010E+01
END period  268

BEGIN period  269
  1 1 1 6.00000000E+01
  120 1 1 5.97018010E+01
END period  269

BEGIN period  270
  1 1 1 6.00000000E+01
  120 1 1 5.97018010E+01
END period  270

BEGIN period  271
  1 1 1 6.00000000E+01
  120 1 1 5.97018010E+01
END period  271

BEGIN period  272
  1 1 1 6.00000000E+01
  120 1 1 5.97018010E+01
END period  272

BEGIN period  273
  1 1 1 6.00000000E+01
  120 1 1 5.97018010E+01
END period  273

BEGIN period  274
  1 1 1 6.00000000E+01
  120 1 1 5.97018010E+01
END period  274

BEGIN period  275
  1 1 1 6.00000000E+01
  120 1 1 5.97018010E+01
END period  275

BEGIN period  276
  1 1 1 6.00000000E+01
  120 1 1 5.97018010E+01
END period  276

BEGIN period  277
  1 1 1 6.00000000E+01
  120 1 1 5.97018010E+01
END period  277

BEGIN period  278
  1 1 1 6.00000000E+01
  120 1 1 5.97018010E+01
END period  278

BEGIN period  279
  1 1 1 6.00000000E+01
  120 1 1 5.97018010E+01
END period  279

BEGIN period  280
  1 1 1 6.00000000E+01
  120 1 1 5.97018010E+01
END period  280

BEGIN period  281
  1 1 1 6.00000000E+01
  120 1 1 5.97018010E+01
END period  281

BEGIN period  282
  1 1 1 6.00000000E+01
  120 1 1 5.97018010E+01
END period  282

BEGIN period  283
  1 1 1 6.00000000E+01
  120 1 1 5.97018010E+01
END period  283

BEGIN period  284
  1 1 1 6.00000000E+01
  120 1 1 5.97018010E+01
END period  284

BEGIN period  285
  1 1 1 6.00000000E+01
  120 1 1 5.97018010E+01
END period  285

BEGIN period  286
  1 1 1 6.00000000E+01
  120 1 1 5.97018010E+01
END period  286

BEGIN period  287
  1 1 1 6.00000000E+01
  120 1 1 5.97018010E+01
END period  287

BEGIN period  288
  1 1 1 6.00000000E+01
  120 1 1 5.97018010E+01
END period  288

BEGIN period  289
  1 1 1 6.00000000E+01
  120 1 1 5.97018010E+01
END period  289

BEGIN period  290
  1 1 1 6.00000000E+01
  120 1 1 5.97018010E+01
END period  290

BEGIN period  291
  1 1 1 6.00000000E+01
  120 1 1 5.97018010E+01
END period  291

BEGIN period  292
  1 1 1 6.00000000E+01
  120 1 1 5.97018010E+01
END period  292

BEGIN period  293
  1 1 1 6.00000000E+01
  120 1 1 5.97018010E+01
END period  293

BEGIN period  294
  1 1 1 6.00000000E+01
  120 1 1 5.97018010E+01
END period  294

BEGIN period  295
  1 1 1 6.00000000E+01
  120 1 1 5.97018010E+01
END period  295

BEGIN period  296
  1 1 1 6.00000000E+01
  120 1 1 5.97018010E+01
END period  296

BEGIN period  297
  1 1 1 6.00000000E+01
  120 1 1 5.97018010E+01
END period  297

BEGIN period  298
  1 1 1 6.00000000E+01
  120 1 1 5.97018010E+01
END period  298

BEGIN period  299
  1 1 1 6.00000000E+01
  120 1 1 5.97018010E+01
END period  299

BEGIN period  300
  1 1 1 6.00000000E+01
  120 1 1 5.97018010E+01
END period  300

BEGIN period  301
  1 1 1 6.00000000E+01
  120 1 1 5.97018010E+01
END period  301

BEGIN period  302
  1 1 1 6.00000000E+01
  120 1 1 5.97018010E+01
END period  302

BEGIN period  303
  1 1 1 6.00000000E+01
  120 1 1 5.97018010E+01
END period  303

BEGIN period  304
  1 1 1 6.00000000E+01
  120 1 1 5.97018010E+01
END period  304

BEGIN period  305
  1 1 1 6.00000000E+01
  120 1 1 5.97018010E+01
END period  305

BEGIN period  306
  1 1 1 6.00000000E+01
  120 1 1 5.97018010E+01
END period  306

BEGIN period  307
  1 1 1 6.00000000E+01
  120 1 1 5.97018010E+01
END period  307

BEGIN period  308
  1 1 1 6.00000000E+01
  120 1 1 5.97018010E+01
END period  308

BEGIN period  309
  1 1 1 6.00000000E+01
  120 1 1 5.97018010E+01
END period  309

BEGIN period  310
  1 1 1 6.00000000E+01
  120 1 1 5.97018010E+01
END period  310

BEGIN period  311
  1 1 1 6.00000000E+01
  120 1 1 5.97018010E+01
END period  311

BEGIN period  312
  1 1 1 6.00000000E+01
  120 1 1 5.97018010E+01
END period  312

BEGIN period  313
  1 1 1 6.00000000E+01
  120 1 1 5.97018010E+01
END period  313

BEGIN period  314
  1 1 1 6.00000000E+01
  120 1 1 5.97018010E+01
END period  314

BEGIN period  315
  1 1 1 6.00000000E+01
  120 1 1 5.97018010E+01
END period  315

BEGIN period  316
  1 1 1 6.00000000E+01
  120 1 1 5.97018010E+01
END period  316

BEGIN period  317
  1 1 1 6.00000000E+01
  120 1 1 5.97018010E+01
END period  317

BEGIN period  318
  1 1 1 6.00000000E+01
  120 1 1 5.97018010E+01
END period  318

BEGIN period  319
  1 1 1 6.00000000E+01
  120 1 1 5.97018010E+01
END period  319

BEGIN period  320
  1 1 1 6.00000000E+01
  120 1 1 5.97018010E+01
END period  320

BEGIN period  321
  1 1 1 6.00000000E+01
  120 1 1 5.97018010E+01
END period  321

BEGIN period  322
  1 1 1 6.00000000E+01
  120 1 1 5.97018010E+01
END period  322

BEGIN period  323
  1 1 1 6.00000000E+01
  120 1 1 5.97018010E+01
END period  323

BEGIN period  324
  1 1 1 6.00000000E+01
  120 1 1 5.97018010E+01
END period  324

BEGIN period  325
  1 1 1 6.00000000E+01
  120 1 1 5.97018010E+01
END period  325

BEGIN period  326
  1 1 1 6.00000000E+01
  120 1 1 5.97018010E+01
END period  326

BEGIN period  327
  1 1 1 6.00000000E+01
  120 1 1 5.97018010E+01
END period  327

BEGIN period  328
  1 1 1 6.00000000E+01
  120 1 1 5.97018010E+01
END period  328

BEGIN period  329
  1 1 1 6.00000000E+01
  120 1 1 5.97018010E+01
END period  329

BEGIN period  330
  1 1 1 6.00000000E+01
  120 1 1 5.97018010E+01
END period  330

BEGIN period  331
  1 1 1 6.00000000E+01
  120 1 1 5.97018010E+01
END period  331

BEGIN period  332
  1 1 1 6.00000000E+01
  120 1 1 5.97018010E+01
END period  332

BEGIN period  333
  1 1 1 6.00000000E+01
  120 1 1 5.97018010E+01
END period  333

BEGIN period  334
  1 1 1 6.00000000E+01
  120 1 1 5.97018010E+01
END period  334

BEGIN period  335
  1 1 1 6.00000000E+01
  120 1 1 5.97018010E+01
END period  335

BEGIN period  336
  1 1 1 6.00000000E+01
  120 1 1 5.97018010E+01
END period  336

BEGIN period  337
  1 1 1 6.00000000E+01
  120 1 1 5.97018010E+01
END period  337

BEGIN period  338
  1 1 1 6.00000000E+01
  120 1 1 5.97018010E+01
END period  338

BEGIN period  339
  1 1 1 6.00000000E+01
  120 1 1 5.97018010E+01
END period  339

BEGIN period  340
  1 1 1 6.00000000E+01
  120 1 1 5.97018010E+01
END period  340

BEGIN period  341
  1 1 1 6.00000000E+01
  120 1 1 5.97018010E+01
END period  341

BEGIN period  342
  1 1 1 6.00000000E+01
  120 1 1 5.97018010E+01
END period  342

BEGIN period  343
  1 1 1 6.00000000E+01
  120 1 1 5.97018010E+01
END period  343

BEGIN period  344
  1 1 1 6.00000000E+01
  120 1 1 5.97018010E+01
END period  344

BEGIN period  345
  1 1 1 6.00000000E+01
  120 1 1 5.97018010E+01
END period  345

BEGIN period  346
  1 1 1 6.00000000E+01
  120 1 1 5.97018010E+01
END period  346

BEGIN period  347
  1 1 1 6.00000000E+01
  120 1 1 5.97018010E+01
END period  347

BEGIN period  348
  1 1 1 6.00000000E+01
  120 1 1 5.97018010E+01
END period  348

BEGIN period  349
  1 1 1 6.00000000E+01
  120 1 1 5.97018010E+01
END period  349

BEGIN period  350
  1 1 1 6.00000000E+01
  120 1 1 5.97018010E+01
END period  350

BEGIN period  351
  1 1 1 6.00000000E+01
  120 1 1 5.97018010E+01
END period  351

BEGIN period  352
  1 1 1 6.00000000E+01
  120 1 1 5.97018010E+01
END period  352

BEGIN period  353
  1 1 1 6.00000000E+01
  120 1 1 5.97018010E+01
END period  353

BEGIN period  354
  1 1 1 6.00000000E+01
  120 1 1 5.97018010E+01
END period  354

BEGIN period  355
  1 1 1 6.00000000E+01
  120 1 1 5.97018010E+01
END period  355

BEGIN period  356
  1 1 1 6.00000000E+01
  120 1 1 5.97018010E+01
END period  356

BEGIN period  357
  1 1 1 6.00000000E+01
  120 1 1 5.97018010E+01
END period  357

BEGIN period  358
  1 1 1 6.00000000E+01
  120 1 1 5.97018010E+01
END period  358

BEGIN period  359
  1 1 1 6.00000000E+01
  120 1 1 5.97018010E+01
END period  359

BEGIN period  360
  1 1 1 6.00000000E+01
  120 1 1 5.97018010E+01
END period  360

BEGIN period  361
  1 1 1 6.00000000E+01
  120 1 1 5.97018010E+01
END period  361

BEGIN period  362
  1 1 1 6.00000000E+01
  120 1 1 5.97018010E+01
END period  362

BEGIN period  363