# File generated by Flopy version 3.10.0.dev2 on 05/09/2025 at 15:28:53.
BEGIN options
  LENGTH_UNITS  meters
END options

BEGIN dimensions
  NLAY  120
  NROW  1
  NCOL  1
END dimensions

BEGIN griddata
  delr
    CONSTANT       1.00000000
  delc
    CONSTANT       1.00000000
  top
    CONSTANT      60.00000000
  botm  LAYERED
    CONSTANT      59.90000000
    CONSTANT      59.50000000
    CONSTANT      59.00000000
    CONSTANT      58.50000000
    CONSTANT      58.00000000
    CONSTANT      57.50000000
    CONSTANT      57.00000000
    CONSTANT      56.50000000
    CONSTANT      56.00000000
    CONSTANT      55.50000000
    CONSTANT      55.00000000
    CONSTANT      54.50000000
    CONSTANT      54.00000000
    CONSTANT      53.50000000
    CONSTANT      53.00000000
    CONSTANT      52.50000000
    CONSTANT      52.00000000
    CONSTANT      51.50000000
    CONSTANT      51.00000000
    CONSTANT      50.50000000
    CONSTANT      50.00000000
    CONSTANT      49.50000000
    CONSTANT      49.00000000
    CONSTANT      48.50000000
    CONSTANT      48.00000000
    CONSTANT      47.50000000
    CONSTANT      47.00000000
    CONSTANT      46.50000000
    CONSTANT      46.00000000
    CONSTANT      45.50000000
    CONSTANT      45.00000000
    CONSTANT      44.50000000
    CONSTANT      44.00000000
    CONSTANT      43.50000000
    CONSTANT      43.00000000
    CONSTANT      42.50000000
    CONSTANT      42.00000000
    CONSTANT      41.50000000
    CONSTANT      41.00000000
    CONSTANT      40.50000000
    CONSTANT      40.00000000
    CONSTANT      39.50000000
    CONSTANT      39.00000000
    CONSTANT      38.50000000
    CONSTANT      38.00000000
    CONSTANT      37.50000000
    CONSTANT      37.00000000
    CONSTANT      36.50000000
    CONSTANT      36.00000000
    CONSTANT      35.50000000
    CONSTANT      35.00000000
    CONSTANT      34.50000000
    CONSTANT      34.00000000
    CONSTANT      33.50000000
    CONSTANT      33.00000000
    CONSTANT      32.50000000
    CONSTANT      32.00000000
    CONSTANT      31.50000000
    CONSTANT      31.00000000
    CONSTANT      30.50000000
    CONSTANT      30.00000000
    CONSTANT      29.50000000
    CONSTANT      29.00000000
    CONSTANT      28.50000000
    CONSTANT      28.00000000
    CONSTANT      27.50000000
    CONSTANT      27.00000000
    CONSTANT      26.50000000
    CONSTANT      26.00000000
    CONSTANT      25.50000000
    CONSTANT      25.00000000
    CONSTANT      24.50000000
    CONSTANT      24.00000000
    CONSTANT      23.50000000
    CONSTANT      23.00000000
    CONSTANT      22.50000000
    CONSTANT      22.00000000
    CONSTANT      21.50000000
    CONSTANT      21.00000000
    CONSTANT      20.50000000
    CONSTANT      20.00000000
    CONSTANT      19.50000000
    CONSTANT      19.00000000
    CONSTANT      18.50000000
    CONSTANT      18.00000000
    CONSTANT      17.50000000
    CONSTANT      17.00000000
    CONSTANT      16.50000000
    CONSTANT      16.00000000
    CONSTANT      15.50000000
    CONSTANT      15.00000000
    CONSTANT      14.50000000
    CONSTANT      14.00000000
    CONSTANT      13.50000000
    CONSTANT      13.00000000
    CONSTANT      12.50000000
    CONSTANT      12.00000000
    CONSTANT      11.50000000
    CONSTANT      11.00000000
    CONSTANT      10.50000000
    CONSTANT      10.00000000
    CONSTANT       9.50000000
    CONSTANT       9.00000000
    CONSTANT       8.50000000
    CONSTANT       8.00000000
    CONSTANT       7.50000000
    CONSTANT       7.00000000
    CONSTANT       6.50000000
    CONSTANT       6.00000000
    CONSTANT       5.50000000
    CONSTANT       5.00000000
    CONSTANT       4.50000000
    CONSTANT       4.00000000
    CONSTANT       3.50000000
    CONSTANT       3.00000000
    CONSTANT       2.50000000
    CONSTANT       2.00000000
    CONSTANT       1.50000000
    CONSTANT       1.00000000
    CONSTANT       0.00000000
END griddata

