# File generated by Flopy version 3.10.0.dev2 on 05/09/2025 at 15:28:58.
BEGIN options
  SORPTION  linear
END options

BEGIN griddata
  porosity
    CONSTANT       0.35000000
  bulk_density
    CONSTANT    1709.50000000
  distcoef
    CONSTANT  1.91663000E-04
END griddata

