# File generated by Flopy version 3.10.0.dev2 on 05/09/2025 at 15:28:58.
BEGIN options
END options

BEGIN griddata
  strt  LAYERED
    INTERNAL  FACTOR  1.0
          10.00000000
    INTERNAL  FACTOR  1.0
          10.00000000
    INTERNAL  FACTOR  1.0
          10.00000000
    INTERNAL  FACTOR  1.0
          10.00000000
    INTERNAL  FACTOR  1.0
          10.00000000
    INTERNAL  FACTOR  1.0
          10.00000000
    INTERNAL  FACTOR  1.0
          10.00000000
    INTERNAL  FACTOR  1.0
          10.00000000
    INTERNAL  FACTOR  1.0
          10.00000000
    INTERNAL  FACTOR  1.0
          10.00000000
    INTERNAL  FACTOR  1.0
          10.00000000
    INTERNAL  FACTOR  1.0
          10.00000000
    INTERNAL  FACTOR  1.0
          10.00000000
    INTERNAL  FACTOR  1.0
          10.00000000
    INTERNAL  FACTOR  1.0
          10.00000000
    INTERNAL  FACTOR  1.0
          10.00000000
    INTERNAL  FACTOR  1.0
          10.00000000
    INTERNAL  FACTOR  1.0
          10.00000000
    INTERNAL  FACTOR  1.0
          10.00000000
    INTERNAL  FACTOR  1.0
          10.00000000
    INTERNAL  FACTOR  1.0
          10.00000000
    INTERNAL  FACTOR  1.0
          10.00000000
    INTERNAL  FACTOR  1.0
          10.00000000
    INTERNAL  FACTOR  1.0
          10.00000000
    INTERNAL  FACTOR  1.0
          10.00000000
    INTERNAL  FACTOR  1.0
          10.00000000
    INTERNAL  FACTOR  1.0
          10.00000000
    INTERNAL  FACTOR  1.0
          10.00000000
    INTERNAL  FACTOR  1.0
          10.00000000
    INTERNAL  FACTOR  1.0
          10.00000000
    INTERNAL  FACTOR  1.0
          10.00000000
    INTERNAL  FACTOR  1.0
          10.00000000
    INTERNAL  FACTOR  1.0
          10.00000000
    INTERNAL  FACTOR  1.0
          10.00000000
    INTERNAL  FACTOR  1.0
          10.00000000
    INTERNAL  FACTOR  1.0
          10.00000000
    INTERNAL  FACTOR  1.0
          10.00000000
    INTERNAL  FACTOR  1.0
          10.00000000
    INTERNAL  FACTOR  1.0
          10.00000000
    INTERNAL  FACTOR  1.0
          10.00000000
    INTERNAL  FACTOR  1.0
          10.00000000
    INTERNAL  FACTOR  1.0
          10.00000000
    INTERNAL  FACTOR  1.0
          10.00000000
    INTERNAL  FACTOR  1.0
          10.00000000
    INTERNAL  FACTOR  1.0
          10.00000000
    INTERNAL  FACTOR  1.0
          10.00000000
    INTERNAL  FACTOR  1.0
          10.00000000
    INTERNAL  FACTOR  1.0
          10.00000000
    INTERNAL  FACTOR  1.0
          10.00000000
    INTERNAL  FACTOR  1.0
          10.00000000
    INTERNAL  FACTOR  1.0
          10.00000000
    INTERNAL  FACTOR  1.0
          10.00000000
    INTERNAL  FACTOR  1.0
          10.00000000
    INTERNAL  FACTOR  1.0
          10.00000000
    INTERNAL  FACTOR  1.0
          10.00000000
    INTERNAL  FACTOR  1.0
          10.00000000
    INTERNAL  FACTOR  1.0
          10.00000000
    INTERNAL  FACTOR  1.0
          10.00000000
    INTERNAL  FACTOR  1.0
          10.00000000
    INTERNAL  FACTOR  1.0
          10.00000000
    INTERNAL  FACTOR  1.0
          10.00000000
    INTERNAL  FACTOR  1.0
          10.00000000
    INTERNAL  FACTOR  1.0
          10.00000000
    INTERNAL  FACTOR  1.0
          10.00000000
    INTERNAL  FACTOR  1.0
          10.00000000
    INTERNAL  FACTOR  1.0
          10.00000000
    INTERNAL  FACTOR  1.0
          10.00000000
    INTERNAL  FACTOR  1.0
          10.00000000
    INTERNAL  FACTOR  1.0
          10.00000000
    INTERNAL  FACTOR  1.0
          10.00000000
    INTERNAL  FACTOR  1.0
          10.00000000
    INTERNAL  FACTOR  1.0
          10.00000000
    INTERNAL  FACTOR  1.0
          10.00000000
    INTERNAL  FACTOR  1.0
          10.00000000
    INTERNAL  FACTOR  1.0
          10.00000000
    INTERNAL  FACTOR  1.0
          10.00000000
    INTERNAL  FACTOR  1.0
          10.00000000
    INTERNAL  FACTOR  1.0
          10.00000000
    INTERNAL  FACTOR  1.0
          10.00000000
    INTERNAL  FACTOR  1.0
          10.00000000
    INTERNAL  FACTOR  1.0
          10.00000000
    INTERNAL  FACTOR  1.0
          10.00000000
    INTERNAL  FACTOR  1.0
          10.00000000
    INTERNAL  FACTOR  1.0
          10.00000000
    INTERNAL  FACTOR  1.0
          10.00000000
    INTERNAL  FACTOR  1.0
          10.00000000
    INTERNAL  FACTOR  1.0
          10.00000000
    INTERNAL  FACTOR  1.0
          10.00000000
    INTERNAL  FACTOR  1.0
          10.00000000
    INTERNAL  FACTOR  1.0
          10.00000000
    INTERNAL  FACTOR  1.0
          10.00000000
    INTERNAL  FACTOR  1.0
          10.00000000
    INTERNAL  FACTOR  1.0
          10.00000000
    INTERNAL  FACTOR  1.0
          10.00000000
    INTERNAL  FACTOR  1.0
          10.00000000
    INTERNAL  FACTOR  1.0
          10.00000000
    INTERNAL  FACTOR  1.0
          10.00000000
    INTERNAL  FACTOR  1.0
          10.00000000
    INTERNAL  FACTOR  1.0
          10.00000000
    INTERNAL  FACTOR  1.0
          10.00000000
    INTERNAL  FACTOR  1.0
          10.00000000
    INTERNAL  FACTOR  1.0
          10.00000000
    INTERNAL  FACTOR  1.0
          10.00000000
    INTERNAL  FACTOR  1.0
          10.00000000
    INTERNAL  FACTOR  1.0
          10.00000000
    INTERNAL  FACTOR  1.0
          10.00000000
    INTERNAL  FACTOR  1.0
          10.00000000
    INTERNAL  FACTOR  1.0
          10.00000000
    INTERNAL  FACTOR  1.0
          10.00000000
    INTERNAL  FACTOR  1.0
          10.00000000
    INTERNAL  FACTOR  1.0
          10.00000000
    INTERNAL  FACTOR  1.0
          10.00000000
    INTERNAL  FACTOR  1.0
          10.00000000
    INTERNAL  FACTOR  1.0
          10.00000000
    INTERNAL  FACTOR  1.0
          10.00000000
    INTERNAL  FACTOR  1.0
          10.00000000
    INTERNAL  FACTOR  1.0
          10.00000000
    INTERNAL  FACTOR  1.0
          10.00000000
    INTERNAL  FACTOR  1.0
          10.00000000
    INTERNAL  FACTOR  1.0
          10.00000000
END griddata

