# File generated by Flopy version 3.10.0.dev2 on 05/09/2025 at 15:28:24.
BEGIN options
  SORPTION  freundlich
END options

BEGIN griddata
  porosity
    CONSTANT       0.37000000
  bulk_density
    CONSTANT       1.58700000
  distcoef
    CONSTANT       0.30000000
  sp2
    CONSTANT       0.70000000
END griddata

