# File generated by Flopy version 3.10.0.dev2 on 05/09/2025 at 15:28:24.
BEGIN options
  XT3D_OFF
END options

BEGIN griddata
  alh
    CONSTANT       1.00000000
  ath1
    CONSTANT       1.00000000
END griddata

