# File generated by Flopy version 3.10.0.dev2 on 05/09/2025 at 15:27:48.
BEGIN options
  DIGITS  10
  PRINT_INPUT
END options

BEGIN continuous  FILEOUT  ex-gwf-drn-p01.surfrate.obs.csv
  surfrate  uzf-gwd-to-mvr  surfrate
  netinfil  net-infiltration  surfrate
END continuous  FILEOUT  ex-gwf-drn-p01.surfrate.obs.csv

