# File generated by Flopy version 3.10.0.dev2 on 05/09/2025 at 15:27:48.
BEGIN options
END options

BEGIN dimensions
  MAXBOUND  2
END dimensions

BEGIN period  1
  1 13 1 9.88000000E+02 3.80000000E-02
  1 14 9 1.04500000E+03 3.80000000E-02
END period  1

