# File generated by Flopy version 3.10.0.dev2 on 05/09/2025 at 15:27:49.
BEGIN options
  LENGTH_UNITS  meters
END options

BEGIN dimensions
  NLAY  1
  NROW  3
  NCOL  10
END dimensions

BEGIN griddata
  delr
    CONSTANT    1000.00000000
  delc
    CONSTANT    1000.00000000
  top
    CONSTANT      50.00000000
  botm
    CONSTANT    -200.00000000
END griddata

