# File generated by Flopy version 3.10.0.dev2 on 05/09/2025 at 15:27:49.
BEGIN options
  TS6  FILEIN  ex-gwf-fhb.chd.ts
END options

BEGIN dimensions
  MAXBOUND  3
END dimensions

BEGIN period  1
  1 1 10 CHDHEAD
  1 2 10 CHDHEAD
  1 3 10 CHDHEAD
END period  1

