# File generated by Flopy version 3.10.0.dev2 on 05/09/2025 at 15:27:49.
BEGIN options
  BUDGET  FILEOUT  ex-gwf-fhb.cbc
  HEAD  FILEOUT  ex-gwf-fhb.hds
END options

BEGIN period  1
  SAVE  HEAD  ALL
  SAVE  BUDGET  ALL
END period  1

