# File generated by Flopy version 3.10.0.dev2 on 05/09/2025 at 15:27:49.
BEGIN options
  TIME_UNITS  days
END options

BEGIN dimensions
  NPER  3
END dimensions

BEGIN perioddata
     400.00000000  10       1.00000000
     200.00000000  4       1.00000000
     400.00000000  6       1.00000000
END perioddata

