# File generated by Flopy version 3.10.0.dev2 on 05/09/2025 at 15:27:49.
BEGIN options
  TS6  FILEIN  ex-gwf-fhb.wel.ts
END options

BEGIN dimensions
  MAXBOUND  1
END dimensions

BEGIN period  1
  1 2 1 FLOWRATE
END period  1

