# File generated by Flopy version 3.10.0.dev2 on 05/09/2025 at 15:28:17.
BEGIN options
  CONTINUE
END options

BEGIN timing
  TDIS6  track.tdis
END timing

BEGIN models
  prt6  track.nam  track
END models

BEGIN exchanges
END exchanges

BEGIN solutiongroup  1
  ems6  track.ems  track
END solutiongroup  1

