# File generated by Flopy version 3.10.0.dev2 on 05/09/2025 at 15:28:17.
BEGIN options
  BUDGET  FILEOUT  track.cbc
  TRACK  FILEOUT  track.trk
  TRACKCSV  FILEOUT  track.trk.csv
END options

BEGIN period  1
  SAVE  BUDGET  ALL
END period  1

