# File generated by Flopy version 3.10.0.dev2 on 05/09/2025 at 15:28:17.
BEGIN options
  EXIT_SOLVE_TOLERANCE  1.00000000E-05
  LOCAL_Z
END options

BEGIN dimensions
  NRELEASEPTS  400
  NRELEASETIMES  1
END dimensions

BEGIN packagedata
  1  1 1 1      12.50000000       0.50000000       0.50000000
  2  1 1 2      37.50000000       0.50000000       0.50000000
  3  1 1 3      62.50000000       0.50000000       0.50000000
  4  1 1 4      87.50000000       0.50000000       0.50000000
  5  1 1 5     112.50000000       0.50000000       0.50000000
  6  1 1 6     137.50000000       0.50000000       0.50000000
  7  1 1 7     162.50000000       0.50000000       0.50000000
  8  1 1 8     187.50000000       0.50000000       0.50000000
  9  1 1 9     212.50000000       0.50000000       0.50000000
  10  1 1 10     237.50000000       0.50000000       0.50000000
  11  1 1 11     262.50000000       0.50000000       0.50000000
  12  1 1 12     287.50000000       0.50000000       0.50000000
  13  1 1 13     312.50000000       0.50000000       0.50000000
  14  1 1 14     337.50000000       0.50000000       0.50000000
  15  1 1 15     362.50000000       0.50000000       0.50000000
  16  1 1 16     387.50000000       0.50000000       0.50000000
  17  1 1 17     412.50000000       0.50000000       0.50000000
  18  1 1 18     437.50000000       0.50000000       0.50000000
  19  1 1 19     462.50000000       0.50000000       0.50000000
  20  1 1 20     487.50000000       0.50000000       0.50000000
  21  1 1 21     512.50000000       0.50000000       0.50000000
  22  1 1 22     537.50000000       0.50000000       0.50000000
  23  1 1 23     562.50000000       0.50000000       0.50000000
  24  1 1 24     587.50000000       0.50000000       0.50000000
  25  1 1 25     612.50000000       0.50000000       0.50000000
  26  1 1 26     637.50000000       0.50000000       0.50000000
  27  1 1 27     662.50000000       0.50000000       0.50000000
  28  1 1 28     687.50000000       0.50000000       0.50000000
  29  1 1 29     712.50000000       0.50000000       0.50000000
  30  1 1 30     737.50000000       0.50000000       0.50000000
  31  1 1 31     762.50000000       0.50000000       0.50000000
  32  1 1 32     787.50000000       0.50000000       0.50000000
  33  1 1 33     812.50000000       0.50000000       0.50000000
  34  1 1 34     837.50000000       0.50000000       0.50000000
  35  1 1 35     862.50000000       0.50000000       0.50000000
  36  1 1 36     887.50000000       0.50000000       0.50000000
  37  1 1 37     912.50000000       0.50000000       0.50000000
  38  1 1 38     937.50000000       0.50000000       0.50000000
  39  1 1 39     962.50000000       0.50000000       0.50000000
  40  1 1 40     987.50000000       0.50000000       0.50000000
  41  1 1 41    1012.50000000       0.50000000       0.50000000
  42  1 1 42    1037.50000000       0.50000000       0.50000000
  43  1 1 43    1062.50000000       0.50000000       0.50000000
  44  1 1 44    1087.50000000       0.50000000       0.50000000
  45  1 1 45    1112.50000000       0.50000000       0.50000000
  46  1 1 46    1137.50000000       0.50000000       0.50000000
  47  1 1 47    1162.50000000       0.50000000       0.50000000
  48  1 1 48    1187.50000000       0.50000000       0.50000000
  49  1 1 49    1212.50000000       0.50000000       0.50000000
  50  1 1 50    1237.50000000       0.50000000       0.50000000
  51  1 1 51    1262.50000000       0.50000000       0.50000000
  52  1 1 52    1287.50000000       0.50000000       0.50000000
  53  1 1 53    1312.50000000       0.50000000       0.50000000
  54  1 1 54    1337.50000000       0.50000000       0.50000000
  55  1 1 55    1362.50000000       0.50000000       0.50000000
  56  1 1 56    1387.50000000       0.50000000       0.50000000
  57  1 1 57    1412.50000000       0.50000000       0.50000000
  58  1 1 58    1437.50000000       0.50000000       0.50000000
  59  1 1 59    1462.50000000       0.50000000       0.50000000
  60  1 1 60    1487.50000000       0.50000000       0.50000000
  61  1 1 61    1512.50000000       0.50000000       0.50000000
  62  1 1 62    1537.50000000       0.50000000       0.50000000
  63  1 1 63    1562.50000000       0.50000000       0.50000000
  64  1 1 64    1587.50000000       0.50000000       0.50000000
  65  1 1 65    1612.50000000       0.50000000       0.50000000
  66  1 1 66    1637.50000000       0.50000000       0.50000000
  67  1 1 67    1662.50000000       0.50000000       0.50000000
  68  1 1 68    1687.50000000       0.50000000       0.50000000
  69  1 1 69    1712.50000000       0.50000000       0.50000000
  70  1 1 70    1737.50000000       0.50000000       0.50000000
  71  1 1 71    1762.50000000       0.50000000       0.50000000
  72  1 1 72    1787.50000000       0.50000000       0.50000000
  73  1 1 73    1812.50000000       0.50000000       0.50000000
  74  1 1 74    1837.50000000       0.50000000       0.50000000
  75  1 1 75    1862.50000000       0.50000000       0.50000000
  76  1 1 76    1887.50000000       0.50000000       0.50000000
  77  1 1 77    1912.50000000       0.50000000       0.50000000
  78  1 1 78    1937.50000000       0.50000000       0.50000000
  79  1 1 79    1962.50000000       0.50000000       0.50000000
  80  1 1 80    1987.50000000       0.50000000       0.50000000
  81  1 1 81    2012.50000000       0.50000000       0.50000000
  82  1 1 82    2037.50000000       0.50000000       0.50000000
  83  1 1 83    2062.50000000       0.50000000       0.50000000
  84  1 1 84    2087.50000000       0.50000000       0.50000000
  85  1 1 85    2112.50000000       0.50000000       0.50000000
  86  1 1 86    2137.50000000       0.50000000       0.50000000
  87  1 1 87    2162.50000000       0.50000000       0.50000000
  88  1 1 88    2187.50000000       0.50000000       0.50000000
  89  1 1 89    2212.50000000       0.50000000       0.50000000
  90  1 1 90    2237.50000000       0.50000000       0.50000000
  91  1 1 91    2262.50000000       0.50000000       0.50000000
  92  1 1 92    2287.50000000       0.50000000       0.50000000
  93  1 1 93    2312.50000000       0.50000000       0.50000000
  94  1 1 94    2337.50000000       0.50000000       0.50000000
  95  1 1 95    2362.50000000       0.50000000       0.50000000
  96  1 1 96    2387.50000000       0.50000000       0.50000000
  97  1 1 97    2412.50000000       0.50000000       0.50000000
  98  1 1 98    2437.50000000       0.50000000       0.50000000
  99  1 1 99    2462.50000000       0.50000000       0.50000000
  100  1 1 100    2487.50000000       0.50000000       0.50000000
  101  1 1 101    2512.50000000       0.50000000       0.50000000
  102  1 1 102    2537.50000000       0.50000000       0.50000000
  103  1 1 103    2562.50000000       0.50000000       0.50000000
  104  1 1 104    2587.50000000       0.50000000       0.50000000
  105  1 1 105    2612.50000000       0.50000000       0.50000000
  106  1 1 106    2637.50000000       0.50000000       0.50000000
  107  1 1 107    2662.50000000       0.50000000       0.50000000
  108  1 1 108    2687.50000000       0.50000000       0.50000000
  109  1 1 109    2712.50000000       0.50000000       0.50000000
  110  1 1 110    2737.50000000       0.50000000       0.50000000
  111  1 1 111    2762.50000000       0.50000000       0.50000000
  112  1 1 112    2787.50000000       0.50000000       0.50000000
  113  1 1 113    2812.50000000       0.50000000       0.50000000
  114  1 1 114    2837.50000000       0.50000000       0.50000000
  115  1 1 115    2862.50000000       0.50000000       0.50000000
  116  1 1 116    2887.50000000       0.50000000       0.50000000
  117  1 1 117    2912.50000000       0.50000000       0.50000000
  118  1 1 118    2937.50000000       0.50000000       0.50000000
  119  1 1 119    2962.50000000       0.50000000       0.50000000
  120  1 1 120    2987.50000000       0.50000000       0.50000000
  121  1 1 121    3012.50000000       0.50000000       0.50000000
  122  1 1 122    3037.50000000       0.50000000       0.50000000
  123  1 1 123    3062.50000000       0.50000000       0.50000000
  124  1 1 124    3087.50000000       0.50000000       0.50000000
  125  1 1 125    3112.50000000       0.50000000       0.50000000
  126  1 1 126    3137.50000000       0.50000000       0.50000000
  127  1 1 127    3162.50000000       0.50000000       0.50000000
  128  1 1 128    3187.50000000       0.50000000       0.50000000
  129  1 1 129    3212.50000000       0.50000000       0.50000000
  130  1 1 130    3237.50000000       0.50000000       0.50000000
  131  1 1 131    3262.50000000       0.50000000       0.50000000
  132  1 1 132    3287.50000000       0.50000000       0.50000000
  133  1 1 133    3312.50000000       0.50000000       0.50000000
  134  1 1 134    3337.50000000       0.50000000       0.50000000
  135  1 1 135    3362.50000000       0.50000000       0.50000000
  136  1 1 136    3387.50000000       0.50000000       0.50000000
  137  1 1 137    3412.50000000       0.50000000       0.50000000
  138  1 1 138    3437.50000000       0.50000000       0.50000000
  139  1 1 139    3462.50000000       0.50000000       0.50000000
  140  1 1 140    3487.50000000       0.50000000       0.50000000
  141  1 1 141    3512.50000000       0.50000000       0.50000000
  142  1 1 142    3537.50000000       0.50000000       0.50000000
  143  1 1 143    3562.50000000       0.50000000       0.50000000
  144  1 1 144    3587.50000000       0.50000000       0.50000000
  145  1 1 145    3612.50000000       0.50000000       0.50000000
  146  1 1 146    3637.50000000       0.50000000       0.50000000
  147  1 1 147    3662.50000000       0.50000000       0.50000000
  148  1 1 148    3687.50000000       0.50000000       0.50000000
  149  1 1 149    3712.50000000       0.50000000       0.50000000
  150  1 1 150    3737.50000000       0.50000000       0.50000000
  151  1 1 151    3762.50000000       0.50000000       0.50000000
  152  1 1 152    3787.50000000       0.50000000       0.50000000
  153  1 1 153    3812.50000000       0.50000000       0.50000000
  154  1 1 154    3837.50000000       0.50000000       0.50000000
  155  1 1 155    3862.50000000       0.50000000       0.50000000
  156  1 1 156    3887.50000000       0.50000000       0.50000000
  157  1 1 157    3912.50000000       0.50000000       0.50000000
  158  1 1 158    3937.50000000       0.50000000       0.50000000
  159  1 1 159    3962.50000000       0.50000000       0.50000000
  160  1 1 160    3987.50000000       0.50000000       0.50000000
  161  1 1 161    4012.50000000       0.50000000       0.50000000
  162  1 1 162    4037.50000000       0.50000000       0.50000000
  163  1 1 163    4062.50000000       0.50000000       0.50000000
  164  1 1 164    4087.50000000       0.50000000       0.50000000
  165  1 1 165    4112.50000000       0.50000000       0.50000000
  166  1 1 166    4137.50000000       0.50000000       0.50000000
  167  1 1 167    4162.50000000       0.50000000       0.50000000
  168  1 1 168    4187.50000000       0.50000000       0.50000000
  169  1 1 169    4212.50000000       0.50000000       0.50000000
  170  1 1 170    4237.50000000       0.50000000       0.50000000
  171  1 1 171    4262.50000000       0.50000000       0.50000000
  172  1 1 172    4287.50000000       0.50000000       0.50000000
  173  1 1 173    4312.50000000       0.50000000       0.50000000
  174  1 1 174    4337.50000000       0.50000000       0.50000000
  175  1 1 175    4362.50000000       0.50000000       0.50000000
  176  1 1 176    4387.50000000       0.50000000       0.50000000
  177  1 1 177    4412.50000000       0.50000000       0.50000000
  178  1 1 178    4437.50000000       0.50000000       0.50000000
  179  1 1 179    4462.50000000       0.50000000       0.50000000
  180  1 1 180    4487.50000000       0.50000000       0.50000000
  181  1 1 181    4512.50000000       0.50000000       0.50000000
  182  1 1 182    4537.50000000       0.50000000       0.50000000
  183  1 1 183    4562.50000000       0.50000000       0.50000000
  184  1 1 184    4587.50000000       0.50000000       0.50000000
  185  1 1 185    4612.50000000       0.50000000       0.50000000
  186  1 1 186    4637.50000000       0.50000000       0.50000000
  187  1 1 187    4662.50000000       0.50000000       0.50000000
  188  1 1 188    4687.50000000       0.50000000       0.50000000
  189  1 1 189    4712.50000000       0.50000000       0.50000000
  190  1 1 190    4737.50000000       0.50000000       0.50000000
  191  1 1 191    4762.50000000       0.50000000       0.50000000
  192  1 1 192    4787.50000000       0.50000000       0.50000000
  193  1 1 193    4812.50000000       0.50000000       0.50000000
  194  1 1 194    4837.50000000       0.50000000       0.50000000
  195  1 1 195    4862.50000000       0.50000000       0.50000000
  196  1 1 196    4887.50000000       0.50000000       0.50000000
  197  1 1 197    4912.50000000       0.50000000       0.50000000
  198  1 1 198    4937.50000000       0.50000000       0.50000000
  199  1 1 199    4962.50000000       0.50000000       0.50000000
  200  1 1 200    4987.50000000       0.50000000       0.50000000
  201  1 1 201    5012.50000000       0.50000000       0.50000000
  202  1 1 202    5037.50000000       0.50000000       0.50000000
  203  1 1 203    5062.50000000       0.50000000       0.50000000
  204  1 1 204    5087.50000000       0.50000000       0.50000000
  205  1 1 205    5112.50000000       0.50000000       0.50000000
  206  1 1 206    5137.50000000       0.50000000       0.50000000
  207  1 1 207    5162.50000000       0.50000000       0.50000000
  208  1 1 208    5187.50000000       0.50000000       0.50000000
  209  1 1 209    5212.50000000       0.50000000       0.50000000
  210  1 1 210    5237.50000000       0.50000000       0.50000000
  211  1 1 211    5262.50000000       0.50000000       0.50000000
  212  1 1 212    5287.50000000       0.50000000       0.50000000
  213  1 1 213    5312.50000000       0.50000000       0.50000000
  214  1 1 214    5337.50000000       0.50000000       0.50000000
  215  1 1 215    5362.50000000       0.50000000       0.50000000
  216  1 1 216    5387.50000000       0.50000000       0.50000000
  217  1 1 217    5412.50000000       0.50000000       0.50000000
  218  1 1 218    5437.50000000       0.50000000       0.50000000
  219  1 1 219    5462.50000000       0.50000000       0.50000000
  220  1 1 220    5487.50000000       0.50000000       0.50000000
  221  1 1 221    5512.50000000       0.50000000       0.50000000
  222  1 1 222    5537.50000000       0.50000000       0.50000000
  223  1 1 223    5562.50000000       0.50000000       0.50000000
  224  1 1 224    5587.50000000       0.50000000       0.50000000
  225  1 1 225    5612.50000000       0.50000000       0.50000000
  226  1 1 226    5637.50000000       0.50000000       0.50000000
  227  1 1 227    5662.50000000       0.50000000       0.50000000
  228  1 1 228    5687.50000000       0.50000000       0.50000000
  229  1 1 229    5712.50000000       0.50000000       0.50000000
  230  1 1 230    5737.50000000       0.50000000       0.50000000
  231  1 1 231    5762.50000000       0.50000000       0.50000000
  232  1 1 232    5787.50000000       0.50000000       0.50000000
  233  1 1 233    5812.50000000       0.50000000       0.50000000
  234  1 1 234    5837.50000000       0.50000000       0.50000000
  235  1 1 235    5862.50000000       0.50000000       0.50000000
  236  1 1 236    5887.50000000       0.50000000       0.50000000
  237  1 1 237    5912.50000000       0.50000000       0.50000000
  238  1 1 238    5937.50000000       0.50000000       0.50000000
  239  1 1 239    5962.50000000       0.50000000       0.50000000
  240  1 1 240    5987.50000000       0.50000000       0.50000000
  241  1 1 241    6012.50000000       0.50000000       0.50000000
  242  1 1 242    6037.50000000       0.50000000       0.50000000
  243  1 1 243    6062.50000000       0.50000000       0.50000000
  244  1 1 244    6087.50000000       0.50000000       0.50000000
  245  1 1 245    6112.50000000       0.50000000       0.50000000
  246  1 1 246    6137.50000000       0.50000000       0.50000000
  247  1 1 247    6162.50000000       0.50000000       0.50000000
  248  1 1 248    6187.50000000       0.50000000       0.50000000
  249  1 1 249    6212.50000000       0.50000000       0.50000000
  250  1 1 250    6237.50000000       0.50000000       0.50000000
  251  1 1 251    6262.50000000       0.50000000       0.50000000
  252  1 1 252    6287.50000000       0.50000000       0.50000000
  253  1 1 253    6312.50000000       0.50000000       0.50000000
  254  1 1 254    6337.50000000       0.50000000       0.50000000
  255  1 1 255    6362.50000000       0.50000000       0.50000000
  256  1 1 256    6387.50000000       0.50000000       0.50000000
  257  1 1 257    6412.50000000       0.50000000       0.50000000
  258  1 1 258    6437.50000000       0.50000000       0.50000000
  259  1 1 259    6462.50000000       0.50000000       0.50000000
  260  1 1 260    6487.50000000       0.50000000       0.50000000
  261  1 1 261    6512.50000000       0.50000000       0.50000000
  262  1 1 262    6537.50000000       0.50000000       0.50000000
  263  1 1 263    6562.50000000       0.50000000       0.50000000
  264  1 1 264    6587.50000000       0.50000000       0.50000000
  265  1 1 265    6612.50000000       0.50000000       0.50000000
  266  1 1 266    6637.50000000       0.50000000       0.50000000
  267  1 1 267    6662.50000000       0.50000000       0.50000000
  268  1 1 268    6687.50000000       0.50000000       0.50000000
  269  1 1 269    6712.50000000       0.50000000       0.50000000
  270  1 1 270    6737.50000000       0.50000000       0.50000000
  271  1 1 271    6762.50000000       0.50000000       0.50000000
  272  1 1 272    6787.50000000       0.50000000       0.50000000
  273  1 1 273    6812.50000000       0.50000000       0.50000000
  274  1 1 274    6837.50000000       0.50000000       0.50000000
  275  1 1 275    6862.50000000       0.50000000       0.50000000
  276  1 1 276    6887.50000000       0.50000000       0.50000000
  277  1 1 277    6912.50000000       0.50000000       0.50000000
  278  1 1 278    6937.50000000       0.50000000       0.50000000
  279  1 1 279    6962.50000000       0.50000000       0.50000000
  280  1 1 280    6987.50000000       0.50000000       0.50000000
  281  1 1 281    7012.50000000       0.50000000       0.50000000
  282  1 1 282    7037.50000000       0.50000000       0.50000000
  283  1 1 283    7062.50000000       0.50000000       0.50000000
  284  1 1 284    7087.50000000       0.50000000       0.50000000
  285  1 1 285    7112.50000000       0.50000000       0.50000000
  286  1 1 286    7137.50000000       0.50000000       0.50000000
  287  1 1 287    7162.50000000       0.50000000       0.50000000
  288  1 1 288    7187.50000000       0.50000000       0.50000000
  289  1 1 289    7212.50000000       0.50000000       0.50000000
  290  1 1 290    7237.50000000       0.50000000       0.50000000
  291  1 1 291    7262.50000000       0.50000000       0.50000000
  292  1 1 292    7287.50000000       0.50000000       0.50000000
  293  1 1 293    7312.50000000       0.50000000       0.50000000
  294  1 1 294    7337.50000000       0.50000000       0.50000000
  295  1 1 295    7362.50000000       0.50000000       0.50000000
  296  1 1 296    7387.50000000       0.50000000       0.50000000
  297  1 1 297    7412.50000000       0.50000000       0.50000000
  298  1 1 298    7437.50000000       0.50000000       0.50000000
  299  1 1 299    7462.50000000       0.50000000       0.50000000
  300  1 1 300    7487.50000000       0.50000000       0.50000000
  301  1 1 301    7512.50000000       0.50000000       0.50000000
  302  1 1 302    7537.50000000       0.50000000       0.50000000
  303  1 1 303    7562.50000000       0.50000000       0.50000000
  304  1 1 304    7587.50000000       0.50000000       0.50000000
  305  1 1 305    7612.50000000       0.50000000       0.50000000
  306  1 1 306    7637.50000000       0.50000000       0.50000000
  307  1 1 307    7662.50000000       0.50000000       0.50000000
  308  1 1 308    7687.50000000       0.50000000       0.50000000
  309  1 1 309    7712.50000000       0.50000000       0.50000000
  310  1 1 310    7737.50000000       0.50000000       0.50000000
  311  1 1 311    7762.50000000       0.50000000       0.50000000
  312  1 1 312    7787.50000000       0.50000000       0.50000000
  313  1 1 313    7812.50000000       0.50000000       0.50000000
  314  1 1 314    7837.50000000       0.50000000       0.50000000
  315  1 1 315    7862.50000000       0.50000000       0.50000000
  316  1 1 316    7887.50000000       0.50000000       0.50000000
  317  1 1 317    7912.50000000       0.50000000       0.50000000
  318  1 1 318    7937.50000000       0.50000000       0.50000000
  319  1 1 319    7962.50000000       0.50000000       0.50000000
  320  1 1 320    7987.50000000       0.50000000       0.50000000
  321  1 1 321    8012.50000000       0.50000000       0.50000000
  322  1 1 322    8037.50000000       0.50000000       0.50000000
  323  1 1 323    8062.50000000       0.50000000       0.50000000
  324  1 1 324    8087.50000000       0.50000000       0.50000000
  325  1 1 325    8112.50000000       0.50000000       0.50000000
  326  1 1 326    8137.50000000       0.50000000       0.50000000
  327  1 1 327    8162.50000000       0.50000000       0.50000000
  328  1 1 328    8187.50000000       0.50000000       0.50000000
  329  1 1 329    8212.50000000       0.50000000       0.50000000
  330  1 1 330    8237.50000000       0.50000000       0.50000000
  331  1 1 331    8262.50000000       0.50000000       0.50000000
  332  1 1 332    8287.50000000       0.50000000       0.50000000
  333  1 1 333    8312.50000000       0.50000000       0.50000000
  334  1 1 334    8337.50000000       0.50000000       0.50000000
  335  1 1 335    8362.50000000       0.50000000       0.50000000
  336  1 1 336    8387.50000000       0.50000000       0.50000000
  337  1 1 337    8412.50000000       0.50000000       0.50000000
  338  1 1 338    8437.50000000       0.50000000       0.50000000
  339  1 1 339    8462.50000000       0.50000000       0.50000000
  340  1 1 340    8487.50000000       0.50000000       0.50000000
  341  1 1 341    8512.50000000       0.50000000       0.50000000
  342  1 1 342    8537.50000000       0.50000000       0.50000000
  343  1 1 343    8562.50000000       0.50000000       0.50000000
  344  1 1 344    8587.50000000       0.50000000       0.50000000
  345  1 1 345    8612.50000000       0.50000000       0.50000000
  346  1 1 346    8637.50000000       0.50000000       0.50000000
  347  1 1 347    8662.50000000       0.50000000       0.50000000
  348  1 1 348    8687.50000000       0.50000000       0.50000000
  349  1 1 349    8712.50000000       0.50000000       0.50000000
  350  1 1 350    8737.50000000       0.50000000       0.50000000
  351  1 1 351    8762.50000000       0.50000000       0.50000000
  352  1 1 352    8787.50000000       0.50000000       0.50000000
  353  1 1 353    8812.50000000       0.50000000       0.50000000
  354  1 1 354    8837.50000000       0.50000000       0.50000000
  355  1 1 355    8862.50000000       0.50000000       0.50000000
  356  1 1 356    8887.50000000       0.50000000       0.50000000
  357  1 1 357    8912.50000000       0.50000000       0.50000000
  358  1 1 358    8937.50000000       0.50000000       0.50000000
  359  1 1 359    8962.50000000       0.50000000       0.50000000
  360  1 1 360    8987.50000000       0.50000000       0.50000000
  361  1 1 361    9012.50000000       0.50000000       0.50000000
  362  1 1 362    9037.50000000       0.50000000       0.50000000
  363  1 1 363    9062.50000000       0.50000000       0.50000000
  364  1 1 364    9087.50000000       0.50000000       0.50000000
  365  1 1 365    9112.50000000       0.50000000       0.50000000
  366  1 1 366    9137.50000000       0.50000000       0.50000000
  367  1 1 367    9162.50000000       0.50000000       0.50000000
  368  1 1 368    9187.50000000       0.50000000       0.50000000
  369  1 1 369    9212.50000000       0.50000000       0.50000000
  370  1 1 370    9237.50000000       0.50000000       0.50000000
  371  1 1 371    9262.50000000       0.50000000       0.50000000
  372  1 1 372    9287.50000000       0.50000000       0.50000000
  373  1 1 373    9312.50000000       0.50000000       0.50000000
  374  1 1 374    9337.50000000       0.50000000       0.50000000
  375  1 1 375    9362.50000000       0.50000000       0.50000000
  376  1 1 376    9387.50000000       0.50000000       0.50000000
  377  1 1 377    9412.50000000       0.50000000       0.50000000
  378  1 1 378    9437.50000000       0.50000000       0.50000000
  379  1 1 379    9462.50000000       0.50000000       0.50000000
  380  1 1 380    9487.50000000       0.50000000       0.50000000
  381  1 1 381    9512.50000000       0.50000000       0.50000000
  382  1 1 382    9537.50000000       0.50000000       0.50000000
  383  1 1 383    9562.50000000       0.50000000       0.50000000
  384  1 1 384    9587.50000000       0.50000000       0.50000000
  385  1 1 385    9612.50000000       0.50000000       0.50000000
  386  1 1 386    9637.50000000       0.50000000       0.50000000
  387  1 1 387    9662.50000000       0.50000000       0.50000000
  388  1 1 388    9687.50000000       0.50000000       0.50000000
  389  1 1 389    9712.50000000       0.50000000       0.50000000
  390  1 1 390    9737.50000000       0.50000000       0.50000000
  391  1 1 391    9762.50000000       0.50000000       0.50000000
  392  1 1 392    9787.50000000       0.50000000       0.50000000
  393  1 1 393    9812.50000000       0.50000000       0.50000000
  394  1 1 394    9837.50000000       0.50000000       0.50000000
  395  1 1 395    9862.50000000       0.50000000       0.50000000
  396  1 1 396    9887.50000000       0.50000000       0.50000000
  397  1 1 397    9912.50000000       0.50000000       0.50000000
  398  1 1 398    9937.50000000       0.50000000       0.50000000
  399  1 1 399    9962.50000000       0.50000000       0.50000000
  400  1 1 400    9987.50000000       0.50000000       0.50000000
END packagedata

BEGIN releasetimes
       0.00000000
END releasetimes

