# File generated by Flopy version 3.10.0.dev2 on 05/09/2025 at 15:28:17.
BEGIN options
END options

BEGIN packages
  DIS6  track.dis  dis
  MIP6  track.mip  mip
  PRP6  track_1a.prp  prp1a
  OC6  track.oc  oc
  FMI6  track.fmi  fmi
END packages

