# File generated by Flopy version 3.10.0.dev2 on 05/09/2025 at 15:28:12.
BEGIN options
  TIME_UNITS  days
END options

BEGIN dimensions
  NPER  1
END dimensions

BEGIN perioddata
    1000.00000000  500       1.00000000
END perioddata

