# File generated by Flopy version 3.10.0.dev2 on 05/09/2025 at 15:28:12.
BEGIN options
  READASARRAYS
  PRINT_FLOWS
END options

BEGIN period  1
  recharge
    CONSTANT       0.00114155
END period  1

