# File generated by Flopy version 3.10.0.dev2 on 05/09/2025 at 15:28:12.
BEGIN options
  auxiliary  CONCENTRATION
  PRINT_INPUT
  PRINT_FLOWS
END options

BEGIN dimensions
  MAXBOUND  8
END dimensions

BEGIN period  1
  3 3 23 -1.92300000E+04 0.00000000E+00
  3 11 20 -1.92300000E+04 0.00000000E+00
  3 18 17 -1.92300000E+04 0.00000000E+00
  3 25 14 -1.92300000E+04 0.00000000E+00
  3 32 11 -1.92300000E+04 0.00000000E+00
  3 40 8 -1.92300000E+04 0.00000000E+00
  3 40 3 -1.53840000E+04 0.00000000E+00
  3 44 11 -1.73070000E+04 0.00000000E+00
END period  1

