# File generated by Flopy version 3.10.0.dev2 on 05/09/2025 at 15:28:12.
BEGIN options
  auxiliary  CONCENTRATION
END options

BEGIN dimensions
  MAXBOUND  792
END dimensions

BEGIN period  1
  1 1 1 7.87399000E+02 0.00000000E+00
  1 1 40 7.91767000E+02 0.00000000E+00
  1 2 1 7.85319000E+02 0.00000000E+00
  1 2 40 7.89687000E+02 0.00000000E+00
  1 3 1 7.83239000E+02 0.00000000E+00
  1 3 40 7.87607000E+02 0.00000000E+00
  1 4 1 7.81367000E+02 0.00000000E+00
  1 4 40 7.85735000E+02 0.00000000E+00
  1 5 1 7.80119000E+02 0.00000000E+00
  1 5 40 7.84487000E+02 0.00000000E+00
  1 6 1 7.79495000E+02 0.00000000E+00
  1 6 40 7.83863000E+02 0.00000000E+00
  1 7 1 7.79183000E+02 0.00000000E+00
  1 7 40 7.83551000E+02 0.00000000E+00
  1 8 1 7.79027000E+02 0.00000000E+00
  1 8 40 7.83395000E+02 0.00000000E+00
  1 9 1 7.78949000E+02 0.00000000E+00
  1 9 40 7.83317000E+02 0.00000000E+00
  1 10 1 7.78897000E+02 0.00000000E+00
  1 10 40 7.83265000E+02 0.00000000E+00
  1 11 1 7.78845000E+02 0.00000000E+00
  1 11 40 7.83213000E+02 0.00000000E+00
  1 12 1 7.78793000E+02 0.00000000E+00
  1 12 40 7.83161000E+02 0.00000000E+00
  1 13 1 7.78741000E+02 0.00000000E+00
  1 13 40 7.83109000E+02 0.00000000E+00
  1 14 1 7.78689000E+02 0.00000000E+00
  1 14 40 7.83057000E+02 0.00000000E+00
  1 15 1 7.78637000E+02 0.00000000E+00
  1 15 40 7.83005000E+02 0.00000000E+00
  1 16 1 7.78585000E+02 0.00000000E+00
  1 16 40 7.82953000E+02 0.00000000E+00
  1 17 1 7.78533000E+02 0.00000000E+00
  1 17 40 7.82901000E+02 0.00000000E+00
  1 18 1 7.78481000E+02 0.00000000E+00
  1 18 40 7.82849000E+02 0.00000000E+00
  1 19 1 7.78429000E+02 0.00000000E+00
  1 19 40 7.82797000E+02 0.00000000E+00
  1 20 1 7.78377000E+02 0.00000000E+00
  1 20 40 7.82745000E+02 0.00000000E+00
  1 21 1 7.78325000E+02 0.00000000E+00
  1 21 40 7.82693000E+02 0.00000000E+00
  1 22 1 7.78273000E+02 0.00000000E+00
  1 22 40 7.82641000E+02 0.00000000E+00
  1 23 1 7.78221000E+02 0.00000000E+00
  1 23 40 7.82589000E+02 0.00000000E+00
  1 24 1 7.78169000E+02 0.00000000E+00
  1 24 40 7.82537000E+02 0.00000000E+00
  1 25 1 7.78117000E+02 0.00000000E+00
  1 25 40 7.82485000E+02 0.00000000E+00
  1 26 1 7.78065000E+02 0.00000000E+00
  1 26 40 7.82433000E+02 0.00000000E+00
  1 27 1 7.78013000E+02 0.00000000E+00
  1 27 40 7.82381000E+02 0.00000000E+00
  1 28 1 7.77961000E+02 0.00000000E+00
  1 28 40 7.82329000E+02 0.00000000E+00
  1 29 1 7.77909000E+02 0.00000000E+00
  1 29 40 7.82277000E+02 0.00000000E+00
  1 30 1 7.77857000E+02 0.00000000E+00
  1 30 40 7.82225000E+02 0.00000000E+00
  1 31 1 7.77805000E+02 0.00000000E+00
  1 31 40 7.82173000E+02 0.00000000E+00
  1 32 1 7.77753000E+02 0.00000000E+00
  1 32 40 7.82121000E+02 0.00000000E+00
  1 33 1 7.77701000E+02 0.00000000E+00
  1 33 40 7.82069000E+02 0.00000000E+00
  1 34 1 7.77649000E+02 0.00000000E+00
  1 34 40 7.82017000E+02 0.00000000E+00
  1 35 1 7.77597000E+02 0.00000000E+00
  1 35 40 7.81965000E+02 0.00000000E+00
  1 36 1 7.77545000E+02 0.00000000E+00
  1 36 40 7.81913000E+02 0.00000000E+00
  1 37 1 7.77493000E+02 0.00000000E+00
  1 37 40 7.81861000E+02 0.00000000E+00
  1 38 1 7.77441000E+02 0.00000000E+00
  1 38 40 7.81809000E+02 0.00000000E+00
  1 39 1 7.77389000E+02 0.00000000E+00
  1 39 40 7.81757000E+02 0.00000000E+00
  1 40 1 7.77337000E+02 0.00000000E+00
  1 40 40 7.81705000E+02 0.00000000E+00
  1 41 1 7.77285000E+02 0.00000000E+00
  1 41 40 7.81653000E+02 0.00000000E+00
  1 42 1 7.77233000E+02 0.00000000E+00
  1 42 40 7.81601000E+02 0.00000000E+00
  1 43 1 7.77181000E+02 0.00000000E+00
  1 43 40 7.81549000E+02 0.00000000E+00
  1 44 1 7.77129000E+02 0.00000000E+00
  1 44 40 7.81497000E+02 0.00000000E+00
  1 45 1 7.77077000E+02 0.00000000E+00
  1 45 40 7.81445000E+02 0.00000000E+00
  1 46 1 7.77025000E+02 0.00000000E+00
  1 46 40 7.81393000E+02 0.00000000E+00
  1 47 1 7.76973000E+02 0.00000000E+00
  1 47 40 7.81341000E+02 0.00000000E+00
  1 48 1 7.76921000E+02 0.00000000E+00
  1 48 40 7.81289000E+02 0.00000000E+00
  1 49 1 7.76869000E+02 0.00000000E+00
  1 49 40 7.81237000E+02 0.00000000E+00
  1 50 1 7.76817000E+02 0.00000000E+00
  1 50 40 7.81185000E+02 0.00000000E+00
  1 51 1 7.76765000E+02 0.00000000E+00
  1 51 40 7.81133000E+02 0.00000000E+00
  1 52 1 7.76713000E+02 0.00000000E+00
  1 52 40 7.81081000E+02 0.00000000E+00
  1 53 1 7.76661000E+02 0.00000000E+00
  1 53 40 7.81029000E+02 0.00000000E+00
  1 54 1 7.76583000E+02 0.00000000E+00
  1 54 40 7.80951000E+02 0.00000000E+00
  1 55 1 7.76427000E+02 0.00000000E+00
  1 55 40 7.80795000E+02 0.00000000E+00
  1 56 1 7.76115000E+02 0.00000000E+00
  1 56 40 7.80483000E+02 0.00000000E+00
  1 57 1 7.75491000E+02 0.00000000E+00
  1 57 40 7.79859000E+02 0.00000000E+00
  1 58 1 7.74243000E+02 0.00000000E+00
  1 58 40 7.78611000E+02 0.00000000E+00
  1 59 1 7.72371000E+02 0.00000000E+00
  1 59 40 7.76739000E+02 0.00000000E+00
  1 60 1 7.70291000E+02 0.00000000E+00
  1 60 40 7.74659000E+02 0.00000000E+00
  1 61 1 7.68211000E+02 0.00000000E+00
  1 61 40 7.72579000E+02 0.00000000E+00
  1 1 2 7.88218000E+02 0.00000000E+00
  1 61 2 7.69030000E+02 0.00000000E+00
  1 1 3 7.88764000E+02 0.00000000E+00
  1 61 3 7.69576000E+02 0.00000000E+00
  1 1 4 7.89037000E+02 0.00000000E+00
  1 61 4 7.69849000E+02 0.00000000E+00
  1 1 5 7.89173000E+02 0.00000000E+00
  1 61 5 7.69985000E+02 0.00000000E+00
  1 1 6 7.89241000E+02 0.00000000E+00
  1 61 6 7.70053000E+02 0.00000000E+00
  1 1 7 7.89276000E+02 0.00000000E+00
  1 61 7 7.70088000E+02 0.00000000E+00
  1 1 8 7.89298000E+02 0.00000000E+00
  1 61 8 7.70110000E+02 0.00000000E+00
  1 1 9 7.89321000E+02 0.00000000E+00
  1 61 9 7.70133000E+02 0.00000000E+00
  1 1 10 7.89344000E+02 0.00000000E+00
  1 61 10 7.70156000E+02 0.00000000E+00
  1 1 11 7.89367000E+02 0.00000000E+00
  1 61 11 7.70179000E+02 0.00000000E+00
  1 1 12 7.89389000E+02 0.00000000E+00
  1 61 12 7.70201000E+02 0.00000000E+00
  1 1 13 7.89412000E+02 0.00000000E+00
  1 61 13 7.70224000E+02 0.00000000E+00
  1 1 14 7.89435000E+02 0.00000000E+00
  1 61 14 7.70247000E+02 0.00000000E+00
  1 1 15 7.89458000E+02 0.00000000E+00
  1 61 15 7.70269000E+02 0.00000000E+00
  1 1 16 7.89480000E+02 0.00000000E+00
  1 61 16 7.70292000E+02 0.00000000E+00
  1 1 17 7.89503000E+02 0.00000000E+00
  1 61 17 7.70315000E+02 0.00000000E+00
  1 1 18 7.89526000E+02 0.00000000E+00
  1 61 18 7.70338000E+02 0.00000000E+00
  1 1 19 7.89549000E+02 0.00000000E+00
  1 61 19 7.70360000E+02 0.00000000E+00
  1 1 20 7.89571000E+02 0.00000000E+00
  1 61 20 7.70383000E+02 0.00000000E+00
  1 1 21 7.89594000E+02 0.00000000E+00
  1 61 21 7.70406000E+02 0.00000000E+00
  1 1 22 7.89617000E+02 0.00000000E+00
  1 61 22 7.70429000E+02 0.00000000E+00
  1 1 23 7.89640000E+02 0.00000000E+00
  1 61 23 7.70451000E+02 0.00000000E+00
  1 1 24 7.89662000E+02 0.00000000E+00
  1 61 24 7.70474000E+02 0.00000000E+00
  1 1 25 7.89685000E+02 0.00000000E+00
  1 61 25 7.70497000E+02 0.00000000E+00
  1 1 26 7.89708000E+02 0.00000000E+00
  1 61 26 7.70520000E+02 0.00000000E+00
  1 1 27 7.89731000E+02 0.00000000E+00
  1 61 27 7.70542000E+02 0.00000000E+00
  1 1 28 7.89753000E+02 0.00000000E+00
  1 61 28 7.70565000E+02 0.00000000E+00
  1 1 29 7.89776000E+02 0.00000000E+00
  1 61 29 7.70588000E+02 0.00000000E+00
  1 1 30 7.89799000E+02 0.00000000E+00
  1 61 30 7.70611000E+02 0.00000000E+00
  1 1 31 7.89821000E+02 0.00000000E+00
  1 61 31 7.70633000E+02 0.00000000E+00
  1 1 32 7.89844000E+02 0.00000000E+00
  1 61 32 7.70656000E+02 0.00000000E+00
  1 1 33 7.89867000E+02 0.00000000E+00
  1 61 33 7.70679000E+02 0.00000000E+00
  1 1 34 7.89890000E+02 0.00000000E+00
  1 61 34 7.70702000E+02 0.00000000E+00
  1 1 35 7.89924000E+02 0.00000000E+00
  1 61 35 7.70736000E+02 0.00000000E+00
  1 1 36 7.89992000E+02 0.00000000E+00
  1 61 36 7.70804000E+02 0.00000000E+00
  1 1 37 7.90129000E+02 0.00000000E+00
  1 61 37 7.70941000E+02 0.00000000E+00
  1 1 38 7.90402000E+02 0.00000000E+00
  1 61 38 7.71214000E+02 0.00000000E+00
  1 1 39 7.90948000E+02 0.00000000E+00
  1 61 39 7.71760000E+02 0.00000000E+00
  2 1 1 7.87399000E+02 0.00000000E+00
  2 1 40 7.91767000E+02 0.00000000E+00
  2 2 1 7.85319000E+02 0.00000000E+00
  2 2 40 7.89687000E+02 0.00000000E+00
  2 3 1 7.83239000E+02 0.00000000E+00
  2 3 40 7.87607000E+02 0.00000000E+00
  2 4 1 7.81367000E+02 0.00000000E+00
  2 4 40 7.85735000E+02 0.00000000E+00
  2 5 1 7.80119000E+02 0.00000000E+00
  2 5 40 7.84487000E+02 0.00000000E+00
  2 6 1 7.79495000E+02 0.00000000E+00
  2 6 40 7.83863000E+02 0.00000000E+00
  2 7 1 7.79183000E+02 0.00000000E+00
  2 7 40 7.83551000E+02 0.00000000E+00
  2 8 1 7.79027000E+02 0.00000000E+00
  2 8 40 7.83395000E+02 0.00000000E+00
  2 9 1 7.78949000E+02 0.00000000E+00
  2 9 40 7.83317000E+02 0.00000000E+00
  2 10 1 7.78897000E+02 0.00000000E+00
  2 10 40 7.83265000E+02 0.00000000E+00
  2 11 1 7.78845000E+02 0.00000000E+00
  2 11 40 7.83213000E+02 0.00000000E+00
  2 12 1 7.78793000E+02 0.00000000E+00
  2 12 40 7.83161000E+02 0.00000000E+00
  2 13 1 7.78741000E+02 0.00000000E+00
  2 13 40 7.83109000E+02 0.00000000E+00
  2 14 1 7.78689000E+02 0.00000000E+00
  2 14 40 7.83057000E+02 0.00000000E+00
  2 15 1 7.78637000E+02 0.00000000E+00
  2 15 40 7.83005000E+02 0.00000000E+00
  2 16 1 7.78585000E+02 0.00000000E+00
  2 16 40 7.82953000E+02 0.00000000E+00
  2 17 1 7.78533000E+02 0.00000000E+00
  2 17 40 7.82901000E+02 0.00000000E+00
  2 18 1 7.78481000E+02 0.00000000E+00
  2 18 40 7.82849000E+02 0.00000000E+00
  2 19 1 7.78429000E+02 0.00000000E+00
  2 19 40 7.82797000E+02 0.00000000E+00
  2 20 1 7.78377000E+02 0.00000000E+00
  2 20 40 7.82745000E+02 0.00000000E+00
  2 21 1 7.78325000E+02 0.00000000E+00
  2 21 40 7.82693000E+02 0.00000000E+00
  2 22 1 7.78273000E+02 0.00000000E+00
  2 22 40 7.82641000E+02 0.00000000E+00
  2 23 1 7.78221000E+02 0.00000000E+00
  2 23 40 7.82589000E+02 0.00000000E+00
  2 24 1 7.78169000E+02 0.00000000E+00
  2 24 40 7.82537000E+02 0.00000000E+00
  2 25 1 7.78117000E+02 0.00000000E+00
  2 25 40 7.82485000E+02 0.00000000E+00
  2 26 1 7.78065000E+02 0.00000000E+00
  2 26 40 7.82433000E+02 0.00000000E+00
  2 27 1 7.78013000E+02 0.00000000E+00
  2 27 40 7.82381000E+02 0.00000000E+00
  2 28 1 7.77961000E+02 0.00000000E+00
  2 28 40 7.82329000E+02 0.00000000E+00
  2 29 1 7.77909000E+02 0.00000000E+00
  2 29 40 7.82277000E+02 0.00000000E+00
  2 30 1 7.77857000E+02 0.00000000E+00
  2 30 40 7.82225000E+02 0.00000000E+00
  2 31 1 7.77805000E+02 0.00000000E+00
  2 31 40 7.82173000E+02 0.00000000E+00
  2 32 1 7.77753000E+02 0.00000000E+00
  2 32 40 7.82121000E+02 0.00000000E+00
  2 33 1 7.77701000E+02 0.00000000E+00
  2 33 40 7.82069000E+02 0.00000000E+00
  2 34 1 7.77649000E+02 0.00000000E+00
  2 34 40 7.82017000E+02 0.00000000E+00
  2 35 1 7.77597000E+02 0.00000000E+00
  2 35 40 7.81965000E+02 0.00000000E+00
  2 36 1 7.77545000E+02 0.00000000E+00
  2 36 40 7.81913000E+02 0.00000000E+00
  2 37 1 7.77493000E+02 0.00000000E+00
  2 37 40 7.81861000E+02 0.00000000E+00
  2 38 1 7.77441000E+02 0.00000000E+00
  2 38 40 7.81809000E+02 0.00000000E+00
  2 39 1 7.77389000E+02 0.00000000E+00
  2 39 40 7.81757000E+02 0.00000000E+00
  2 40 1 7.77337000E+02 0.00000000E+00
  2 40 40 7.81705000E+02 0.00000000E+00
  2 41 1 7.77285000E+02 0.00000000E+00
  2 41 40 7.81653000E+02 0.00000000E+00
  2 42 1 7.77233000E+02 0.00000000E+00
  2 42 40 7.81601000E+02 0.00000000E+00
  2 43 1 7.77181000E+02 0.00000000E+00
  2 43 40 7.81549000E+02 0.00000000E+00
  2 44 1 7.77129000E+02 0.00000000E+00
  2 44 40 7.81497000E+02 0.00000000E+00
  2 45 1 7.77077000E+02 0.00000000E+00
  2 45 40 7.81445000E+02 0.00000000E+00
  2 46 1 7.77025000E+02 0.00000000E+00
  2 46 40 7.81393000E+02 0.00000000E+00
  2 47 1 7.76973000E+02 0.00000000E+00
  2 47 40 7.81341000E+02 0.00000000E+00
  2 48 1 7.76921000E+02 0.00000000E+00
  2 48 40 7.81289000E+02 0.00000000E+00
  2 49 1 7.76869000E+02 0.00000000E+00
  2 49 40 7.81237000E+02 0.00000000E+00
  2 50 1 7.76817000E+02 0.00000000E+00
  2 50 40 7.81185000E+02 0.00000000E+00
  2 51 1 7.76765000E+02 0.00000000E+00
  2 51 40 7.81133000E+02 0.00000000E+00
  2 52 1 7.76713000E+02 0.00000000E+00
  2 52 40 7.81081000E+02 0.00000000E+00
  2 53 1 7.76661000E+02 0.00000000E+00
  2 53 40 7.81029000E+02 0.00000000E+00
  2 54 1 7.76583000E+02 0.00000000E+00
  2 54 40 7.80951000E+02 0.00000000E+00
  2 55 1 7.76427000E+02 0.00000000E+00
  2 55 40 7.80795000E+02 0.00000000E+00
  2 56 1 7.76115000E+02 0.00000000E+00
  2 56 40 7.80483000E+02 0.00000000E+00
  2 57 1 7.75491000E+02 0.00000000E+00
  2 57 40 7.79859000E+02 0.00000000E+00
  2 58 1 7.74243000E+02 0.00000000E+00
  2 58 40 7.78611000E+02 0.00000000E+00
  2 59 1 7.72371000E+02 0.00000000E+00
  2 59 40 7.76739000E+02 0.00000000E+00
  2 60 1 7.70291000E+02 0.00000000E+00
  2 60 40 7.74659000E+02 0.00000000E+00
  2 61 1 7.68211000E+02 0.00000000E+00
  2 61 40 7.72579000E+02 0.00000000E+00
  2 1 2 7.88218000E+02 0.00000000E+00
  2 61 2 7.69030000E+02 0.00000000E+00
  2 1 3 7.88764000E+02 0.00000000E+00
  2 61 3 7.69576000E+02 0.00000000E+00
  2 1 4 7.89037000E+02 0.00000000E+00
  2 61 4 7.69849000E+02 0.00000000E+00
  2 1 5 7.89173000E+02 0.00000000E+00
  2 61 5 7.69985000E+02 0.00000000E+00
  2 1 6 7.89241000E+02 0.00000000E+00
  2 61 6 7.70053000E+02 0.00000000E+00
  2 1 7 7.89276000E+02 0.00000000E+00
  2 61 7 7.70088000E+02 0.00000000E+00
  2 1 8 7.89298000E+02 0.00000000E+00
  2 61 8 7.70110000E+02 0.00000000E+00
  2 1 9 7.89321000E+02 0.00000000E+00
  2 61 9 7.70133000E+02 0.00000000E+00
  2 1 10 7.89344000E+02 0.00000000E+00
  2 61 10 7.70156000E+02 0.00000000E+00
  2 1 11 7.89367000E+02 0.00000000E+00
  2 61 11 7.70179000E+02 0.00000000E+00
  2 1 12 7.89389000E+02 0.00000000E+00
  2 61 12 7.70201000E+02 0.00000000E+00
  2 1 13 7.89412000E+02 0.00000000E+00
  2 61 13 7.70224000E+02 0.00000000E+00
  2 1 14 7.89435000E+02 0.00000000E+00
  2 61 14 7.70247000E+02 0.00000000E+00
  2 1 15 7.89458000E+02 0.00000000E+00
  2 61 15 7.70269000E+02 0.00000000E+00
  2 1 16 7.89480000E+02 0.00000000E+00
  2 61 16 7.70292000E+02 0.00000000E+00
  2 1 17 7.89503000E+02 0.00000000E+00
  2 61 17 7.70315000E+02 0.00000000E+00
  2 1 18 7.89526000E+02 0.00000000E+00
  2 61 18 7.70338000E+02 0.00000000E+00
  2 1 19 7.89549000E+02 0.00000000E+00
  2 61 19 7.70360000E+02 0.00000000E+00
  2 1 20 7.89571000E+02 0.00000000E+00
  2 61 20 7.70383000E+02 0.00000000E+00
  2 1 21 7.89594000E+02 0.00000000E+00
  2 61 21 7.70406000E+02 0.00000000E+00
  2 1 22 7.89617000E+02 0.00000000E+00
  2 61 22 7.70429000E+02 0.00000000E+00
  2 1 23 7.89640000E+02 0.00000000E+00
  2 61 23 7.70451000E+02 0.00000000E+00
  2 1 24 7.89662000E+02 0.00000000E+00
  2 61 24 7.70474000E+02 0.00000000E+00
  2 1 25 7.89685000E+02 0.00000000E+00
  2 61 25 7.70497000E+02 0.00000000E+00
  2 1 26 7.89708000E+02 0.00000000E+00
  2 61 26 7.70520000E+02 0.00000000E+00
  2 1 27 7.89731000E+02 0.00000000E+00
  2 61 27 7.70542000E+02 0.00000000E+00
  2 1 28 7.89753000E+02 0.00000000E+00
  2 61 28 7.70565000E+02 0.00000000E+00
  2 1 29 7.89776000E+02 0.00000000E+00
  2 61 29 7.70588000E+02 0.00000000E+00
  2 1 30 7.89799000E+02 0.00000000E+00
  2 61 30 7.70611000E+02 0.00000000E+00
  2 1 31 7.89821000E+02 0.00000000E+00
  2 61 31 7.70633000E+02 0.00000000E+00
  2 1 32 7.89844000E+02 0.00000000E+00
  2 61 32 7.70656000E+02 0.00000000E+00
  2 1 33 7.89867000E+02 0.00000000E+00
  2 61 33 7.70679000E+02 0.00000000E+00
  2 1 34 7.89890000E+02 0.00000000E+00
  2 61 34 7.70702000E+02 0.00000000E+00
  2 1 35 7.89924000E+02 0.00000000E+00
  2 61 35 7.70736000E+02 0.00000000E+00
  2 1 36 7.89992000E+02 0.00000000E+00
  2 61 36 7.70804000E+02 0.00000000E+00
  2 1 37 7.90129000E+02 0.00000000E+00
  2 61 37 7.70941000E+02 0.00000000E+00
  2 1 38 7.90402000E+02 0.00000000E+00
  2 61 38 7.71214000E+02 0.00000000E+00
  2 1 39 7.90948000E+02 0.00000000E+00
  2 61 39 7.71760000E+02 0.00000000E+00
  3 1 1 7.87399000E+02 0.00000000E+00
  3 1 40 7.91767000E+02 0.00000000E+00
  3 2 1 7.85319000E+02 0.00000000E+00
  3 2 40 7.89687000E+02 0.00000000E+00
  3 3 1 7.83239000E+02 0.00000000E+00
  3 3 40 7.87607000E+02 0.00000000E+00
  3 4 1 7.81367000E+02 0.00000000E+00
  3 4 40 7.85735000E+02 0.00000000E+00
  3 5 1 7.80119000E+02 0.00000000E+00
  3 5 40 7.84487000E+02 0.00000000E+00
  3 6 1 7.79495000E+02 0.00000000E+00
  3 6 40 7.83863000E+02 0.00000000E+00
  3 7 1 7.79183000E+02 0.00000000E+00
  3 7 40 7.83551000E+02 0.00000000E+00
  3 8 1 7.79027000E+02 0.00000000E+00
  3 8 40 7.83395000E+02 0.00000000E+00
  3 9 1 7.78949000E+02 0.00000000E+00
  3 9 40 7.83317000E+02 0.00000000E+00
  3 10 1 7.78897000E+02 0.00000000E+00
  3 10 40 7.83265000E+02 0.00000000E+00
  3 11 1 7.78845000E+02 0.00000000E+00
  3 11 40 7.83213000E+02 0.00000000E+00
  3 12 1 7.78793000E+02 0.00000000E+00
  3 12 40 7.83161000E+02 0.00000000E+00
  3 13 1 7.78741000E+02 0.00000000E+00
  3 13 40 7.83109000E+02 0.00000000E+00
  3 14 1 7.78689000E+02 0.00000000E+00
  3 14 40 7.83057000E+02 0.00000000E+00
  3 15 1 7.78637000E+02 0.00000000E+00
  3 15 40 7.83005000E+02 0.00000000E+00
  3 16 1 7.78585000E+02 0.00000000E+00
  3 16 40 7.82953000E+02 0.00000000E+00
  3 17 1 7.78533000E+02 0.00000000E+00
  3 17 40 7.82901000E+02 0.00000000E+00
  3 18 1 7.78481000E+02 0.00000000E+00
  3 18 40 7.82849000E+02 0.00000000E+00
  3 19 1 7.78429000E+02 0.00000000E+00
  3 19 40 7.82797000E+02 0.00000000E+00
  3 20 1 7.78377000E+02 0.00000000E+00
  3 20 40 7.82745000E+02 0.00000000E+00
  3 21 1 7.78325000E+02 0.00000000E+00
  3 21 40 7.82693000E+02 0.00000000E+00
  3 22 1 7.78273000E+02 0.00000000E+00
  3 22 40 7.82641000E+02 0.00000000E+00
  3 23 1 7.78221000E+02 0.00000000E+00
  3 23 40 7.82589000E+02 0.00000000E+00
  3 24 1 7.78169000E+02 0.00000000E+00
  3 24 40 7.82537000E+02 0.00000000E+00
  3 25 1 7.78117000E+02 0.00000000E+00
  3 25 40 7.82485000E+02 0.00000000E+00
  3 26 1 7.78065000E+02 0.00000000E+00
  3 26 40 7.82433000E+02 0.00000000E+00
  3 27 1 7.78013000E+02 0.00000000E+00
  3 27 40 7.82381000E+02 0.00000000E+00
  3 28 1 7.77961000E+02 0.00000000E+00
  3 28 40 7.82329000E+02 0.00000000E+00
  3 29 1 7.77909000E+02 0.00000000E+00
  3 29 40 7.82277000E+02 0.00000000E+00
  3 30 1 7.77857000E+02 0.00000000E+00
  3 30 40 7.82225000E+02 0.00000000E+00
  3 31 1 7.77805000E+02 0.00000000E+00
  3 31 40 7.82173000E+02 0.00000000E+00
  3 32 1 7.77753000E+02 0.00000000E+00
  3 32 40 7.82121000E+02 0.00000000E+00
  3 33 1 7.77701000E+02 0.00000000E+00
  3 33 40 7.82069000E+02 0.00000000E+00
  3 34 1 7.77649000E+02 0.00000000E+00
  3 34 40 7.82017000E+02 0.00000000E+00
  3 35 1 7.77597000E+02 0.00000000E+00
  3 35 40 7.81965000E+02 0.00000000E+00
  3 36 1 7.77545000E+02 0.00000000E+00
  3 36 40 7.81913000E+02 0.00000000E+00
  3 37 1 7.77493000E+02 0.00000000E+00
  3 37 40 7.81861000E+02 0.00000000E+00
  3 38 1 7.77441000E+02 0.00000000E+00
  3 38 40 7.81809000E+02 0.00000000E+00
  3 39 1 7.77389000E+02 0.00000000E+00
  3 39 40 7.81757000E+02 0.00000000E+00
  3 40 1 7.77337000E+02 0.00000000E+00
  3 40 40 7.81705000E+02 0.00000000E+00
  3 41 1 7.77285000E+02 0.00000000E+00
  3 41 40 7.81653000E+02 0.00000000E+00
  3 42 1 7.77233000E+02 0.00000000E+00
  3 42 40 7.81601000E+02 0.00000000E+00
  3 43 1 7.77181000E+02 0.00000000E+00
  3 43 40 7.81549000E+02 0.00000000E+00
  3 44 1 7.77129000E+02 0.00000000E+00
  3 44 40 7.81497000E+02 0.00000000E+00
  3 45 1 7.77077000E+02 0.00000000E+00
  3 45 40 7.81445000E+02 0.00000000E+00
  3 46 1 7.77025000E+02 0.00000000E+00
  3 46 40 7.81393000E+02 0.00000000E+00
  3 47 1 7.76973000E+02 0.00000000E+00
  3 47 40 7.81341000E+02 0.00000000E+00
  3 48 1 7.76921000E+02 0.00000000E+00
  3 48 40 7.81289000E+02 0.00000000E+00
  3 49 1 7.76869000E+02 0.00000000E+00
  3 49 40 7.81237000E+02 0.00000000E+00
  3 50 1 7.76817000E+02 0.00000000E+00
  3 50 40 7.81185000E+02 0.00000000E+00
  3 51 1 7.76765000E+02 0.00000000E+00
  3 51 40 7.81133000E+02 0.00000000E+00
  3 52 1 7.76713000E+02 0.00000000E+00
  3 52 40 7.81081000E+02 0.00000000E+00
  3 53 1 7.76661000E+02 0.00000000E+00
  3 53 40 7.81029000E+02 0.00000000E+00
  3 54 1 7.76583000E+02 0.00000000E+00
  3 54 40 7.80951000E+02 0.00000000E+00
  3 55 1 7.76427000E+02 0.00000000E+00
  3 55 40 7.80795000E+02 0.00000000E+00
  3 56 1 7.76115000E+02 0.00000000E+00
  3 56 40 7.80483000E+02 0.00000000E+00
  3 57 1 7.75491000E+02 0.00000000E+00
  3 57 40 7.79859000E+02 0.00000000E+00
  3 58 1 7.74243000E+02 0.00000000E+00
  3 58 40 7.78611000E+02 0.00000000E+00
  3 59 1 7.72371000E+02 0.00000000E+00
  3 59 40 7.76739000E+02 0.00000000E+00
  3 60 1 7.70291000E+02 0.00000000E+00
  3 60 40 7.74659000E+02 0.00000000E+00
  3 61 1 7.68211000E+02 0.00000000E+00
  3 61 40 7.72579000E+02 0.00000000E+00
  3 1 2 7.88218000E+02 0.00000000E+00
  3 61 2 7.69030000E+02 0.00000000E+00
  3 1 3 7.88764000E+02 0.00000000E+00
  3 61 3 7.69576000E+02 0.00000000E+00
  3 1 4 7.89037000E+02 0.00000000E+00
  3 61 4 7.69849000E+02 0.00000000E+00
  3 1 5 7.89173000E+02 0.00000000E+00
  3 61 5 7.69985000E+02 0.00000000E+00
  3 1 6 7.89241000E+02 0.00000000E+00
  3 61 6 7.70053000E+02 0.00000000E+00
  3 1 7 7.89276000E+02 0.00000000E+00
  3 61 7 7.70088000E+02 0.00000000E+00
  3 1 8 7.89298000E+02 0.00000000E+00
  3 61 8 7.70110000E+02 0.00000000E+00
  3 1 9 7.89321000E+02 0.00000000E+00
  3 61 9 7.70133000E+02 0.00000000E+00
  3 1 10 7.89344000E+02 0.00000000E+00
  3 61 10 7.70156000E+02 0.00000000E+00
  3 1 11 7.89367000E+02 0.00000000E+00
  3 61 11 7.70179000E+02 0.00000000E+00
  3 1 12 7.89389000E+02 0.00000000E+00
  3 61 12 7.70201000E+02 0.00000000E+00
  3 1 13 7.89412000E+02 0.00000000E+00
  3 61 13 7.70224000E+02 0.00000000E+00
  3 1 14 7.89435000E+02 0.00000000E+00
  3 61 14 7.70247000E+02 0.00000000E+00
  3 1 15 7.89458000E+02 0.00000000E+00
  3 61 15 7.70269000E+02 0.00000000E+00
  3 1 16 7.89480000E+02 0.00000000E+00
  3 61 16 7.70292000E+02 0.00000000E+00
  3 1 17 7.89503000E+02 0.00000000E+00
  3 61 17 7.70315000E+02 0.00000000E+00
  3 1 18 7.89526000E+02 0.00000000E+00
  3 61 18 7.70338000E+02 0.00000000E+00
  3 1 19 7.89549000E+02 0.00000000E+00
  3 61 19 7.70360000E+02 0.00000000E+00
  3 1 20 7.89571000E+02 0.00000000E+00
  3 61 20 7.70383000E+02 0.00000000E+00
  3 1 21 7.89594000E+02 0.00000000E+00
  3 61 21 7.70406000E+02 0.00000000E+00
  3 1 22 7.89617000E+02 0.00000000E+00
  3 61 22 7.70429000E+02 0.00000000E+00
  3 1 23 7.89640000E+02 0.00000000E+00
  3 61 23 7.70451000E+02 0.00000000E+00
  3 1 24 7.89662000E+02 0.00000000E+00
  3 61 24 7.70474000E+02 0.00000000E+00
  3 1 25 7.89685000E+02 0.00000000E+00
  3 61 25 7.70497000E+02 0.00000000E+00
  3 1 26 7.89708000E+02 0.00000000E+00
  3 61 26 7.70520000E+02 0.00000000E+00
  3 1 27 7.89731000E+02 0.00000000E+00
  3 61 27 7.70542000E+02 0.00000000E+00
  3 1 28 7.89753000E+02 0.00000000E+00
  3 61 28 7.70565000E+02 0.00000000E+00
  3 1 29 7.89776000E+02 0.00000000E+00
  3 61 29 7.70588000E+02 0.00000000E+00
  3 1 30 7.89799000E+02 0.00000000E+00
  3 61 30 7.70611000E+02 0.00000000E+00
  3 1 31 7.89821000E+02 0.00000000E+00
  3 61 31 7.70633000E+02 0.00000000E+00
  3 1 32 7.89844000E+02 0.00000000E+00
  3 61 32 7.70656000E+02 0.00000000E+00
  3 1 33 7.89867000E+02 0.00000000E+00
  3 61 33 7.70679000E+02 0.00000000E+00
  3 1 34 7.89890000E+02 0.00000000E+00
  3 61 34 7.70702000E+02 0.00000000E+00
  3 1 35 7.89924000E+02 0.00000000E+00
  3 61 35 7.70736000E+02 0.00000000E+00
  3 1 36 7.89992000E+02 0.00000000E+00
  3 61 36 7.70804000E+02 0.00000000E+00
  3 1 37 7.90129000E+02 0.00000000E+00
  3 61 37 7.70941000E+02 0.00000000E+00
  3 1 38 7.90402000E+02 0.00000000E+00
  3 61 38 7.71214000E+02 0.00000000E+00
  3 1 39 7.90948000E+02 0.00000000E+00
  3 61 39 7.71760000E+02 0.00000000E+00
  4 1 1 7.87399000E+02 0.00000000E+00
  4 1 40 7.91767000E+02 0.00000000E+00
  4 2 1 7.85319000E+02 0.00000000E+00
  4 2 40 7.89687000E+02 0.00000000E+00
  4 3 1 7.83239000E+02 0.00000000E+00
  4 3 40 7.87607000E+02 0.00000000E+00
  4 4 1 7.81367000E+02 0.00000000E+00
  4 4 40 7.85735000E+02 0.00000000E+00
  4 5 1 7.80119000E+02 0.00000000E+00
  4 5 40 7.84487000E+02 0.00000000E+00
  4 6 1 7.79495000E+02 0.00000000E+00
  4 6 40 7.83863000E+02 0.00000000E+00
  4 7 1 7.79183000E+02 0.00000000E+00
  4 7 40 7.83551000E+02 0.00000000E+00
  4 8 1 7.79027000E+02 0.00000000E+00
  4 8 40 7.83395000E+02 0.00000000E+00
  4 9 1 7.78949000E+02 0.00000000E+00
  4 9 40 7.83317000E+02 0.00000000E+00
  4 10 1 7.78897000E+02 0.00000000E+00
  4 10 40 7.83265000E+02 0.00000000E+00
  4 11 1 7.78845000E+02 0.00000000E+00
  4 11 40 7.83213000E+02 0.00000000E+00
  4 12 1 7.78793000E+02 0.00000000E+00
  4 12 40 7.83161000E+02 0.00000000E+00
  4 13 1 7.78741000E+02 0.00000000E+00
  4 13 40 7.83109000E+02 0.00000000E+00
  4 14 1 7.78689000E+02 0.00000000E+00
  4 14 40 7.83057000E+02 0.00000000E+00
  4 15 1 7.78637000E+02 0.00000000E+00
  4 15 40 7.83005000E+02 0.00000000E+00
  4 16 1 7.78585000E+02 0.00000000E+00
  4 16 40 7.82953000E+02 0.00000000E+00
  4 17 1 7.78533000E+02 0.00000000E+00
  4 17 40 7.82901000E+02 0.00000000E+00
  4 18 1 7.78481000E+02 0.00000000E+00
  4 18 40 7.82849000E+02 0.00000000E+00
  4 19 1 7.78429000E+02 0.00000000E+00
  4 19 40 7.82797000E+02 0.00000000E+00
  4 20 1 7.78377000E+02 0.00000000E+00
  4 20 40 7.82745000E+02 0.00000000E+00
  4 21 1 7.78325000E+02 0.00000000E+00
  4 21 40 7.82693000E+02 0.00000000E+00
  4 22 1 7.78273000E+02 0.00000000E+00
  4 22 40 7.82641000E+02 0.00000000E+00
  4 23 1 7.78221000E+02 0.00000000E+00
  4 23 40 7.82589000E+02 0.00000000E+00
  4 24 1 7.78169000E+02 0.00000000E+00
  4 24 40 7.82537000E+02 0.00000000E+00
  4 25 1 7.78117000E+02 0.00000000E+00
  4 25 40 7.82485000E+02 0.00000000E+00
  4 26 1 7.78065000E+02 0.00000000E+00
  4 26 40 7.82433000E+02 0.00000000E+00
  4 27 1 7.78013000E+02 0.00000000E+00
  4 27 40 7.82381000E+02 0.00000000E+00
  4 28 1 7.77961000E+02 0.00000000E+00
  4 28 40 7.82329000E+02 0.00000000E+00
  4 29 1 7.77909000E+02 0.00000000E+00
  4 29 40 7.82277000E+02 0.00000000E+00
  4 30 1 7.77857000E+02 0.00000000E+00
  4 30 40 7.82225000E+02 0.00000000E+00
  4 31 1 7.77805000E+02 0.00000000E+00
  4 31 40 7.82173000E+02 0.00000000E+00
  4 32 1 7.77753000E+02 0.00000000E+00
  4 32 40 7.82121000E+02 0.00000000E+00
  4 33 1 7.77701000E+02 0.00000000E+00
  4 33 40 7.82069000E+02 0.00000000E+00
  4 34 1 7.77649000E+02 0.00000000E+00
  4 34 40 7.82017000E+02 0.00000000E+00
  4 35 1 7.77597000E+02 0.00000000E+00
  4 35 40 7.81965000E+02 0.00000000E+00
  4 36 1 7.77545000E+02 0.00000000E+00
  4 36 40 7.81913000E+02 0.00000000E+00
  4 37 1 7.77493000E+02 0.00000000E+00
  4 37 40 7.81861000E+02 0.00000000E+00
  4 38 1 7.77441000E+02 0.00000000E+00
  4 38 40 7.81809000E+02 0.00000000E+00
  4 39 1 7.77389000E+02 0.00000000E+00
  4 39 40 7.81757000E+02 0.00000000E+00
  4 40 1 7.77337000E+02 0.00000000E+00
  4 40 40 7.81705000E+02 0.00000000E+00
  4 41 1 7.77285000E+02 0.00000000E+00
  4 41 40 7.81653000E+02 0.00000000E+00
  4 42 1 7.77233000E+02 0.00000000E+00
  4 42 40 7.81601000E+02 0.00000000E+00
  4 43 1 7.77181000E+02 0.00000000E+00
  4 43 40 7.81549000E+02 0.00000000E+00
  4 44 1 7.77129000E+02 0.00000000E+00
  4 44 40 7.81497000E+02 0.00000000E+00
  4 45 1 7.77077000E+02 0.00000000E+00
  4 45 40 7.81445000E+02 0.00000000E+00
  4 46 1 7.77025000E+02 0.00000000E+00
  4 46 40 7.81393000E+02 0.00000000E+00
  4 47 1 7.76973000E+02 0.00000000E+00
  4 47 40 7.81341000E+02 0.00000000E+00
  4 48 1 7.76921000E+02 0.00000000E+00
  4 48 40 7.81289000E+02 0.00000000E+00
  4 49 1 7.76869000E+02 0.00000000E+00
  4 49 40 7.81237000E+02 0.00000000E+00
  4 50 1 7.76817000E+02 0.00000000E+00
  4 50 40 7.81185000E+02 0.00000000E+00
  4 51 1 7.76765000E+02 0.00000000E+00
  4 51 40 7.81133000E+02 0.00000000E+00
  4 52 1 7.76713000E+02 0.00000000E+00
  4 52 40 7.81081000E+02 0.00000000E+00
  4 53 1 7.76661000E+02 0.00000000E+00
  4 53 40 7.81029000E+02 0.00000000E+00
  4 54 1 7.76583000E+02 0.00000000E+00
  4 54 40 7.80951000E+02 0.00000000E+00
  4 55 1 7.76427000E+02 0.00000000E+00
  4 55 40 7.80795000E+02 0.00000000E+00
  4 56 1 7.76115000E+02 0.00000000E+00
  4 56 40 7.80483000E+02 0.00000000E+00
  4 57 1 7.75491000E+02 0.00000000E+00
  4 57 40 7.79859000E+02 0.00000000E+00
  4 58 1 7.74243000E+02 0.00000000E+00
  4 58 40 7.78611000E+02 0.00000000E+00
  4 59 1 7.72371000E+02 0.00000000E+00
  4 59 40 7.76739000E+02 0.00000000E+00
  4 60 1 7.70291000E+02 0.00000000E+00
  4 60 40 7.74659000E+02 0.00000000E+00
  4 61 1 7.68211000E+02 0.00000000E+00
  4 61 40 7.72579000E+02 0.00000000E+00
  4 1 2 7.88218000E+02 0.00000000E+00
  4 61 2 7.69030000E+02 0.00000000E+00
  4 1 3 7.88764000E+02 0.00000000E+00
  4 61 3 7.69576000E+02 0.00000000E+00
  4 1 4 7.89037000E+02 0.00000000E+00
  4 61 4 7.69849000E+02 0.00000000E+00
  4 1 5 7.89173000E+02 0.00000000E+00
  4 61 5 7.69985000E+02 0.00000000E+00
  4 1 6 7.89241000E+02 0.00000000E+00
  4 61 6 7.70053000E+02 0.00000000E+00
  4 1 7 7.89276000E+02 0.00000000E+00
  4 61 7 7.70088000E+02 0.00000000E+00
  4 1 8 7.89298000E+02 0.00000000E+00
  4 61 8 7.70110000E+02 0.00000000E+00
  4 1 9 7.89321000E+02 0.00000000E+00
  4 61 9 7.70133000E+02 0.00000000E+00
  4 1 10 7.89344000E+02 0.00000000E+00
  4 61 10 7.70156000E+02 0.00000000E+00
  4 1 11 7.89367000E+02 0.00000000E+00
  4 61 11 7.70179000E+02 0.00000000E+00
  4 1 12 7.89389000E+02 0.00000000E+00
  4 61 12 7.70201000E+02 0.00000000E+00
  4 1 13 7.89412000E+02 0.00000000E+00
  4 61 13 7.70224000E+02 0.00000000E+00
  4 1 14 7.89435000E+02 0.00000000E+00
  4 61 14 7.70247000E+02 0.00000000E+00
  4 1 15 7.89458000E+02 0.00000000E+00
  4 61 15 7.70269000E+02 0.00000000E+00
  4 1 16 7.89480000E+02 0.00000000E+00
  4 61 16 7.70292000E+02 0.00000000E+00
  4 1 17 7.89503000E+02 0.00000000E+00
  4 61 17 7.70315000E+02 0.00000000E+00
  4 1 18 7.89526000E+02 0.00000000E+00
  4 61 18 7.70338000E+02 0.00000000E+00
  4 1 19 7.89549000E+02 0.00000000E+00
  4 61 19 7.70360000E+02 0.00000000E+00
  4 1 20 7.89571000E+02 0.00000000E+00
  4 61 20 7.70383000E+02 0.00000000E+00
  4 1 21 7.89594000E+02 0.00000000E+00
  4 61 21 7.70406000E+02 0.00000000E+00
  4 1 22 7.89617000E+02 0.00000000E+00
  4 61 22 7.70429000E+02 0.00000000E+00