# Name file for MODPATH 7, generated by Flopy version 3.10.0.dev2.
MPBAS      mp7-p03-mp7.mpbas
GRBDIS     ../gwf/mp7-p03-gwf.dis.grb
TDIS       ../gwf/ex-prt-mp7-p03.tdis
HEAD       ../gwf/mp7-p03-gwf.hds
BUDGET     ../gwf/mp7-p03-gwf.cbb
