# MPSIM package for MODPATH 7 generated by Flopy 3.10.0.dev2
mp7-p03-mp7.mpnam
mp7-p03-mp7.mplst
4 1 1 1 1 0
mp7-p03-mp7.mpend
mp7-p03-mp7.mppth
mp7-p03-mp7.timeseries
0
2
1 1 0.9
2
1
30 2000.0
2
-1
INTERNAL               1    (20I10) -1 #zones layer 1                 
         1         1         1         1         1         1         1         1         1         1         1         1         1         1         1         1         1         1         1         5
         1         1         1         1         1         1         1         1         1         1         1         1         1         1         1         1         1         1         1         5
         1         1         1         1         1         1         1         1         1         1         1         1         1         1         1         1         1         1         1         5
         1         1         1         1         1         1         1         1         1         1         1         1         1         1         1         1         1         1         1         5
         1         1         1         1         1         1         1         1         1         1         1         1         1         1         1         1         1         1         1         5
         1         1         1         1         1         1         1         1         1         1         1         1         1         1         1         1         1         1         1         5
         1         1         1         1         1         1         1         1         1         1         1         1         1         1         1         1         1         1         1         5
         1         1         1         1         1         1         1         1         1         1         1         1         1         1         1         1         1         1         1         5
         1         1         1         1         1         1         1         1         1         1         1         1         1         1         1         1         1         1         1         5
         1         1         1         1         1         1         1         1         1         1         1         1         1         1         1         1         1         1         1         5
         1         1         1         1         1         1         1         1         1         2         1         1         1         1         1         1         1         1         1         5
         1         1         1         1         1         1         1         1         1         1         1         1         1         1         1         1         1         1         1         5
         1         1         1         1         1         1         1         1         1         1         1         1         1         1         1         1         1         1         1         5
         1         1         1         1         1         1         1         1         1         1         1         1         1         1         1         1         1         1         1         5
         1         1         1         1         1         1         1         1         1         4         4         4         4         4         4         4         4         4         4         5
         1         1         1         1         1         1         1         1         1         1         1         1         1         1         1         1         1         1         1         5
         1         1         1         1         1         1         1         1         1         1         1         1         1         1         1         1         1         1         1         5
         1         1         1         1         1         1         1         1         1         1         1         1         1         1         1         1         1         1         1         5
         1         1         1         1         1         1         1         1         1         1         1         1         1         1         1         1         1         1         1         5
         1         1         1         1         1         1         1         1         1         1         1         1         1         1         1         1         1         1         1         5
         1         1         1         1         1         1         1         1         1         1         1         1         1         1         1         1         1         1         1         5
CONSTANT          1                                #zones layer 2                 
INTERNAL               1    (20I10) -1 #zones layer 3                 
         1         1         1         1         1         1         1         1         1         1         1         1         1         1         1         1         1         1         1         1
         1         1         1         1         1         1         1         1         1         1         1         1         1         1         1         1         1         1         1         1
         1         1         1         1         1         1         1         1         1         1         1         1         1         1         1         1         1         1         1         1
         1         1         1         1         1         1         1         1         1         1         1         1         1         1         1         1         1         1         1         1
         1         1         1         1         1         1         1         1         1         1         1         1         1         1         1         1         1         1         1         1
         1         1         1         1         1         1         1         1         1         1         1         1         1         1         1         1         1         1         1         1
         1         1         1         1         1         1         1         1         1         1         1         1         1         1         1         1         1         1         1         1
         1         1         1         1         1         1         1         1         1         1         1         1         1         1         1         1         1         1         1         1
         1         1         1         1         1         1         1         1         1         1         1         1         1         1         1         1         1         1         1         1
         1         1         1         1         1         1         1         1         1         1         1         1         1         1         1         1         1         1         1         1
         1         1         1         1         1         1         1         1         1         1         1         1         1         1         1         1         1         1         1         1
         1         1         1         1         1         1         1         1         1         1         1         1         1         1         1         1         1         1         1         1
         1         1         1         1         3         1         1         1         1         1         1         1         1         1         1         1         1         1         1         1
         1         1         1         1         1         1         1         1         1         1         1         1         1         1         1         1         1         1         1         1
         1         1         1         1         1         1         1         1         1         1         1         1         1         1         1         1         1         1         1         1
         1         1         1         1         1         1         1         1         1         1         1         1         1         1         1         1         1         1         1         1
         1         1         1         1         1         1         1         1         1         1         1         1         1         1         1         1         1         1         1         1
         1         1         1         1         1         1         1         1         1         1         1         1         1         1         1         1         1         1         1         1
         1         1         1         1         1         1         1         1         1         1         1         1         1         1         1         1         1         1         1         1
         1         1         1         1         1         1         1         1         1         1         1         1         1         1         1         1         1         1         1         1
         1         1         1         1         1         1         1         1         1         1         1         1         1         1         1         1         1         1         1         1
1
1
PG1
2
10 0.0 20
EXTERNAL mp7-p03-mp7.pg1.sloc
