# MPSIM package for MODPATH 7 generated by Flopy 3.9.3
modpath_DSD1335.mpnam
modpath_DSD1335.mplst
2 2 2 2 1 0
modpath_DSD1335.mpend
modpath_DSD1335.mppth
0
1
0
2
1
1
1
PG1
1
0.0
INTERNAL
1
1
1 0
         1        51        51             0.5             0.5             0.5               0         0
