# File generated by Flopy version 3.10.0.dev2 on 05/09/2025 at 15:27:42.
BEGIN options
  LENGTH_UNITS  feet
END options

BEGIN dimensions
  NLAY  1
  NCPL  288
  NVERT  323
END dimensions

BEGIN griddata
  top
    INTERNAL  FACTOR  1.0
        10.00000000      10.00000000      10.00000000      10.00000000      10.00000000      10.00000000      10.00000000      10.00000000      10.00000000      10.00000000      10.00000000      10.00000000      10.00000000      10.00000000      10.00000000      10.00000000      10.00000000      10.00000000      10.00000000      10.00000000
        10.00000000      10.00000000      10.00000000      10.00000000      10.00000000      10.00000000      10.00000000      10.00000000      10.00000000      10.00000000      10.00000000      10.00000000      10.00000000      10.00000000      10.00000000      10.00000000      10.00000000      10.00000000      10.00000000      10.00000000
        10.00000000      10.00000000      10.00000000      10.00000000      10.00000000      10.00000000      10.00000000      10.00000000      10.00000000      10.00000000      10.00000000      10.00000000      10.00000000      10.00000000      10.00000000      10.00000000      10.00000000      10.00000000      10.00000000      10.00000000
        10.00000000      10.00000000      10.00000000      10.00000000      10.00000000      10.00000000      10.00000000      10.00000000      10.00000000      10.00000000      10.00000000      10.00000000      10.00000000      10.00000000      10.00000000      10.00000000      10.00000000      10.00000000      10.00000000      10.00000000
        10.00000000      10.00000000      10.00000000      10.00000000      10.00000000      10.00000000      10.00000000      10.00000000      10.00000000      10.00000000      10.00000000      10.00000000      10.00000000      10.00000000      10.00000000      10.00000000      10.00000000      10.00000000      10.00000000      10.00000000
        10.00000000      10.00000000      10.00000000      10.00000000      10.00000000      10.00000000      10.00000000      10.00000000      10.00000000      10.00000000      10.00000000      10.00000000      10.00000000      10.00000000      10.00000000      10.00000000      10.00000000      10.00000000      10.00000000      10.00000000
        10.00000000      10.00000000      10.00000000      10.00000000      10.00000000      10.00000000      10.00000000      10.00000000      10.00000000      10.00000000      10.00000000      10.00000000      10.00000000      10.00000000      10.00000000      10.00000000      10.00000000      10.00000000      10.00000000      10.00000000
        10.00000000      10.00000000      10.00000000      10.00000000      10.00000000      10.00000000      10.00000000      10.00000000      10.00000000      10.00000000      10.00000000      10.00000000      10.00000000      10.00000000      10.00000000      10.00000000      10.00000000      10.00000000      10.00000000      10.00000000
        10.00000000      10.00000000      10.00000000      10.00000000      10.00000000      10.00000000      10.00000000      10.00000000      10.00000000      10.00000000      10.00000000      10.00000000      10.00000000      10.00000000      10.00000000      10.00000000      10.00000000      10.00000000      10.00000000      10.00000000
        10.00000000      10.00000000      10.00000000      10.00000000      10.00000000      10.00000000      10.00000000      10.00000000      10.00000000      10.00000000      10.00000000      10.00000000      10.00000000      10.00000000      10.00000000      10.00000000      10.00000000      10.00000000      10.00000000      10.00000000
        10.00000000      10.00000000      10.00000000      10.00000000      10.00000000      10.00000000      10.00000000      10.00000000      10.00000000      10.00000000      10.00000000      10.00000000      10.00000000      10.00000000      10.00000000      10.00000000      10.00000000      10.00000000      10.00000000      10.00000000
        10.00000000      10.00000000      10.00000000      10.00000000      10.00000000      10.00000000      10.00000000      10.00000000      10.00000000      10.00000000      10.00000000      10.00000000      10.00000000      10.00000000      10.00000000      10.00000000      10.00000000      10.00000000      10.00000000      10.00000000
        10.00000000      10.00000000      10.00000000      10.00000000      10.00000000      10.00000000      10.00000000      10.00000000      10.00000000      10.00000000      10.00000000      10.00000000      10.00000000      10.00000000      10.00000000      10.00000000      10.00000000      10.00000000      10.00000000      10.00000000
        10.00000000      10.00000000      10.00000000      10.00000000      10.00000000      10.00000000      10.00000000      10.00000000      10.00000000      10.00000000      10.00000000      10.00000000      10.00000000      10.00000000      10.00000000      10.00000000      10.00000000      10.00000000      10.00000000      10.00000000
        10.00000000      10.00000000      10.00000000      10.00000000      10.00000000      10.00000000      10.00000000      10.00000000
  botm
    INTERNAL  FACTOR  1.0
         0.00000000       0.00000000       0.00000000       0.00000000       0.00000000       0.00000000       0.00000000       0.00000000       0.00000000       0.00000000       0.00000000       0.00000000       0.00000000       0.00000000       0.00000000       0.00000000       0.00000000       0.00000000       0.00000000       0.00000000
         0.00000000       0.00000000       0.00000000       0.00000000       0.00000000       0.00000000       0.00000000       0.00000000       0.00000000       0.00000000       0.00000000       0.00000000       0.00000000       0.00000000       0.00000000       0.00000000       0.00000000       0.00000000       0.00000000       0.00000000
         0.00000000       0.00000000       0.00000000       0.00000000       0.00000000       0.00000000       0.00000000       0.00000000       0.00000000       0.00000000       0.00000000       0.00000000       0.00000000       0.00000000       0.00000000       0.00000000       0.00000000       0.00000000       0.00000000       0.00000000
         0.00000000       0.00000000       0.00000000       0.00000000       0.00000000       0.00000000       0.00000000       0.00000000       0.00000000       0.00000000       0.00000000       0.00000000       0.00000000       0.00000000       0.00000000       0.00000000       0.00000000       0.00000000       0.00000000       0.00000000
         0.00000000       0.00000000       0.00000000       0.00000000       0.00000000       0.00000000       0.00000000       0.00000000       0.00000000       0.00000000       0.00000000       0.00000000       0.00000000       0.00000000       0.00000000       0.00000000       0.00000000       0.00000000       0.00000000       0.00000000
         0.00000000       0.00000000       0.00000000       0.00000000       0.00000000       0.00000000       0.00000000       0.00000000       0.00000000       0.00000000       0.00000000       0.00000000       0.00000000       0.00000000       0.00000000       0.00000000       0.00000000       0.00000000       0.00000000       0.00000000
         0.00000000       0.00000000       0.00000000       0.00000000       0.00000000       0.00000000       0.00000000       0.00000000       0.00000000       0.00000000       0.00000000       0.00000000       0.00000000       0.00000000       0.00000000       0.00000000       0.00000000       0.00000000       0.00000000       0.00000000
         0.00000000       0.00000000       0.00000000       0.00000000       0.00000000       0.00000000       0.00000000       0.00000000       0.00000000       0.00000000       0.00000000       0.00000000       0.00000000       0.00000000       0.00000000       0.00000000       0.00000000       0.00000000       0.00000000       0.00000000
         0.00000000       0.00000000       0.00000000       0.00000000       0.00000000       0.00000000       0.00000000       0.00000000       0.00000000       0.00000000       0.00000000       0.00000000       0.00000000       0.00000000       0.00000000       0.00000000       0.00000000       0.00000000       0.00000000       0.00000000
         0.00000000       0.00000000       0.00000000       0.00000000       0.00000000       0.00000000       0.00000000       0.00000000       0.00000000       0.00000000       0.00000000       0.00000000       0.00000000       0.00000000       0.00000000       0.00000000       0.00000000       0.00000000       0.00000000       0.00000000
         0.00000000       0.00000000       0.00000000       0.00000000       0.00000000       0.00000000       0.00000000       0.00000000       0.00000000       0.00000000       0.00000000       0.00000000       0.00000000       0.00000000       0.00000000       0.00000000       0.00000000       0.00000000       0.00000000       0.00000000
         0.00000000       0.00000000       0.00000000       0.00000000       0.00000000       0.00000000       0.00000000       0.00000000       0.00000000       0.00000000       0.00000000       0.00000000       0.00000000       0.00000000       0.00000000       0.00000000       0.00000000       0.00000000       0.00000000       0.00000000
         0.00000000       0.00000000       0.00000000       0.00000000       0.00000000       0.00000000       0.00000000       0.00000000       0.00000000       0.00000000       0.00000000       0.00000000       0.00000000       0.00000000       0.00000000       0.00000000       0.00000000       0.00000000       0.00000000       0.00000000
         0.00000000       0.00000000       0.00000000       0.00000000       0.00000000       0.00000000       0.00000000       0.00000000       0.00000000       0.00000000       0.00000000       0.00000000       0.00000000       0.00000000       0.00000000       0.00000000       0.00000000       0.00000000       0.00000000       0.00000000
         0.00000000       0.00000000       0.00000000       0.00000000       0.00000000       0.00000000       0.00000000       0.00000000
END griddata

BEGIN vertices
  1       4.00000000       0.00000000
  2       3.98477879       0.34862297
  3       3.93923101       0.69459271
  4       3.86370331       1.03527618
  5       3.75877048       1.36808057
  6       3.62523115       1.69047305
  7       3.46410162       2.00000000
  8       3.27660818       2.29430575
  9       3.06417777       2.57115044
  10       2.82842712       2.82842712
  11       2.57115044       3.06417777
  12       2.29430575       3.27660818
  13       2.00000000       3.46410162
  14       1.69047305       3.62523115
  15       1.36808057       3.75877048
  16       1.03527618       3.86370331
  17       0.69459271       3.93923101
  18       0.34862297       3.98477879
  19  2.90946462E-15       4.00000000
  20       5.00000000       0.00000000
  21       4.98097349       0.43577871
  22       4.92403877       0.86824089
  23       4.82962913       1.29409523
  24       4.69846310       1.71010072
  25       4.53153894       2.11309131
  26       4.33012702       2.50000000
  27       4.09576022       2.86788218
  28       3.83022222       3.21393805
  29       3.53553391       3.53553391
  30       3.21393805       3.83022222
  31       2.86788218       4.09576022
  32       2.50000000       4.33012702
  33       2.11309131       4.53153894
  34       1.71010072       4.69846310
  35       1.29409523       4.82962913
  36       0.86824089       4.92403877
  37       0.43577871       4.98097349
  38  3.63683077E-15       5.00000000
  39       6.00000000       0.00000000
  40       5.97716819       0.52293446
  41       5.90884652       1.04188907
  42       5.79555496       1.55291427
  43       5.63815572       2.05212086
  44       5.43784672       2.53570957
  45       5.19615242       3.00000000
  46       4.91491227       3.44145862
  47       4.59626666       3.85672566
  48       4.24264069       4.24264069
  49       3.85672566       4.59626666
  50       3.44145862       4.91491227
  51       3.00000000       5.19615242
  52       2.53570957       5.43784672
  53       2.05212086       5.63815572
  54       1.55291427       5.79555496
  55       1.04188907       5.90884652
  56       0.52293446       5.97716819
  57  4.36419693E-15       6.00000000
  58       7.00000000       0.00000000
  59       6.97336289       0.61009020
  60       6.89365427       1.21553724
  61       6.76148078       1.81173332
  62       6.57784835       2.39414100
  63       6.34415451       2.95832783
  64       6.06217783       3.50000000
  65       5.73406431       4.01503505
  66       5.36231110       4.49951327
  67       4.94974747       4.94974747
  68       4.49951327       5.36231110
  69       4.01503505       5.73406431
  70       3.50000000       6.06217783
  71       2.95832783       6.34415451
  72       2.39414100       6.57784835
  73       1.81173332       6.76148078
  74       1.21553724       6.89365427
  75       0.61009020       6.97336289
  76  5.09156308E-15       7.00000000
  77       8.00000000       0.00000000
  78       7.96955758       0.69724594
  79       7.87846202       1.38918542
  80       7.72740661       2.07055236
  81       7.51754097       2.73616115
  82       7.25046230       3.38094609
  83       6.92820323       4.00000000
  84       6.55321635       4.58861149
  85       6.12835554       5.14230088
  86       5.65685425       5.65685425
  87       5.14230088       6.12835554
  88       4.58861149       6.55321635
  89       4.00000000       6.92820323
  90       3.38094609       7.25046230
  91       2.73616115       7.51754097
  92       2.07055236       7.72740661
  93       1.38918542       7.87846202
  94       0.69724594       7.96955758
  95  5.81892924E-15       8.00000000
  96       9.00000000       0.00000000
  97       8.96575228       0.78440168
  98       8.86326978       1.56283360
  99       8.69333244       2.32937141
  100       8.45723359       3.07818129
  101       8.15677008       3.80356436
  102       7.79422863       4.50000000
  103       7.37236840       5.16218793
  104       6.89439999       5.78508849
  105       6.36396103       6.36396103
  106       5.78508849       6.89439999
  107       5.16218793       7.37236840
  108       4.50000000       7.79422863
  109       3.80356436       8.15677008
  110       3.07818129       8.45723359
  111       2.32937141       8.69333244
  112       1.56283360       8.86326978
  113       0.78440168       8.96575228
  114  6.54629539E-15       9.00000000
  115      10.00000000       0.00000000
  116       9.96194698       0.87155743
  117       9.84807753       1.73648178
  118       9.65925826       2.58819045
  119       9.39692621       3.42020143
  120       9.06307787       4.22618262
  121       8.66025404       5.00000000
  122       8.19152044       5.73576436
  123       7.66044443       6.42787610
  124       7.07106781       7.07106781
  125       6.42787610       7.66044443
  126       5.73576436       8.19152044
  127       5.00000000       8.66025404
  128       4.22618262       9.06307787
  129       3.42020143       9.39692621
  130       2.58819045       9.65925826
  131       1.73648178       9.84807753
  132       0.87155743       9.96194698
  133  7.27366155E-15      10.00000000
  134      11.00000000       0.00000000
  135      10.95814168       0.95871317
  136      10.83288528       1.91012995
  137      10.62518409       2.84700950
  138      10.33661883       3.76222158
  139       9.96938566       4.64880088
  140       9.52627944       5.50000000
  141       9.01067249       6.30934080
  142       8.42648887       7.07066371
  143       7.77817459       7.77817459
  144       7.07066371       8.42648887
  145       6.30934080       9.01067249
  146       5.50000000       9.52627944
  147       4.64880088       9.96938566
  148       3.76222158      10.33661883
  149       2.84700950      10.62518409
  150       1.91012995      10.83288528
  151       0.95871317      10.95814168
  152  8.00102770E-15      11.00000000
  153      12.00000000       0.00000000
  154      11.95433638       1.04586891
  155      11.81769304       2.08377813
  156      11.59110992       3.10582854
  157      11.27631145       4.10424172
  158      10.87569344       5.07141914
  159      10.39230485       6.00000000
  160       9.82982453       6.88291724
  161       9.19253332       7.71345132
  162       8.48528137       8.48528137
  163       7.71345132       9.19253332
  164       6.88291724       9.82982453
  165       6.00000000      10.39230485
  166       5.07141914      10.87569344
  167       4.10424172      11.27631145
  168       3.10582854      11.59110992
  169       2.08377813      11.81769304
  170       1.04586891      11.95433638
  171  8.72839386E-15      12.00000000
  172      13.00000000       0.00000000
  173      12.95053108       1.13302466
  174      12.80250079       2.25742631
  175      12.55703574       3.36464759
  176      12.21600407       4.44626186
  177      11.78200123       5.49403740
  178      11.25833025       6.50000000
  179      10.64897658       7.45649367
  180       9.95857776       8.35623893
  181       9.19238816       9.19238816
  182       8.35623893       9.95857776
  183       7.45649367      10.64897658
  184       6.50000000      11.25833025
  185       5.49403740      11.78200123
  186       4.44626186      12.21600407
  187       3.36464759      12.55703574
  188       2.25742631      12.80250079
  189       1.13302466      12.95053108
  190  9.45576001E-15      13.00000000
  191      14.00000000       0.00000000
  192      13.94672577       1.22018040
  193      13.78730854       2.43107449
  194      13.52296157       3.62346663
  195      13.15569669       4.78828201
  196      12.68830902       5.91665566
  197      12.12435565       7.00000000
  198      11.46812862       8.03007011
  199      10.72462220       8.99902654
  200       9.89949494       9.89949494
  201       8.99902654      10.72462220
  202       8.03007011      11.46812862
  203       7.00000000      12.12435565
  204       5.91665566      12.68830902
  205       4.78828201      13.15569669
  206       3.62346663      13.52296157
  207       2.43107449      13.78730854
  208       1.22018040      13.94672577
  209  1.01831262E-14      14.00000000
  210      15.00000000       0.00000000
  211      14.94292047       1.30733614
  212      14.77211630       2.60472267
  213      14.48888739       3.88228568
  214      14.09538931       5.13030215
  215      13.59461681       6.33927393
  216      12.99038106       7.50000000
  217      12.28728066       8.60364655
  218      11.49066665       9.64181415
  219      10.60660172      10.60660172
  220       9.64181415      11.49066665
  221       8.60364655      12.28728066
  222       7.50000000      12.99038106
  223       6.33927393      13.59461681
  224       5.13030215      14.09538931
  225       3.88228568      14.48888739
  226       2.60472267      14.77211630
  227       1.30733614      14.94292047
  228  1.09104923E-14      15.00000000
  229      16.00000000       0.00000000
  230      15.93911517       1.39449188
  231      15.75692405       2.77837084
  232      15.45481322       4.14110472
  233      15.03508193       5.47232229
  234      14.50092459       6.76189219
  235      13.85640646       8.00000000
  236      13.10643271       9.17722298
  237      12.25671109      10.28460175
  238      11.31370850      11.31370850
  239      10.28460175      12.25671109
  240       9.17722298      13.10643271
  241       8.00000000      13.85640646
  242       6.76189219      14.50092459
  243       5.47232229      15.03508193
  244       4.14110472      15.45481322
  245       2.77837084      15.75692405
  246       1.39449188      15.93911517
  247  1.16378585E-14      16.00000000
  248      17.00000000       0.00000000
  249      16.93530987       1.48164763
  250      16.74173180       2.95201902
  251      16.42073905       4.39992377
  252      15.97477455       5.81434244
  253      15.40723238       7.18451045
  254      14.72243186       8.50000000
  255      13.92558475       9.75079942
  256      13.02275553      10.92738936
  257      12.02081528      12.02081528
  258      10.92738936      13.02275553
  259       9.75079942      13.92558475
  260       8.50000000      14.72243186
  261       7.18451045      15.40723238
  262       5.81434244      15.97477455
  263       4.39992377      16.42073905
  264       2.95201902      16.74173180
  265       1.48164763      16.93530987
  266  1.23652246E-14      17.00000000
  267      18.00000000       0.00000000
  268      17.93150457       1.56880337
  269      17.72653955       3.12566720
  270      17.38666487       4.65874281
  271      16.91446717       6.15636258
  272      16.31354017       7.60712871
  273      15.58845727       9.00000000
  274      14.74473680      10.32437585
  275      13.78879998      11.57017697
  276      12.72792206      12.72792206
  277      11.57017697      13.78879998
  278      10.32437585      14.74473680
  279       9.00000000      15.58845727
  280       7.60712871      16.31354017
  281       6.15636258      16.91446717
  282       4.65874281      17.38666487
  283       3.12566720      17.72653955
  284       1.56880337      17.93150457
  285  1.30925908E-14      18.00000000
  286      19.00000000       0.00000000
  287      18.92769926       1.65595911
  288      18.71134731       3.29931538
  289      18.35259070       4.91756186
  290      17.85415979       6.49838272
  291      17.21984795       8.02974697
  292      16.45448267       9.50000000
  293      15.56388884      10.89795229
  294      14.55484442      12.21296458
  295      13.43502884      13.43502884
  296      12.21296458      14.55484442
  297      10.89795229      15.56388884
  298       9.50000000      16.45448267
  299       8.02974697      17.21984795
  300       6.49838272      17.85415979
  301       4.91756186      18.35259070
  302       3.29931538      18.71134731
  303       1.65595911      18.92769926
  304  1.38199569E-14      19.00000000
  305      20.00000000       0.00000000
  306      19.92389396       1.74311485
  307      19.69615506       3.47296355
  308      19.31851653       5.17638090
  309      18.79385242       6.84040287
  310      18.12615574       8.45236523
  311      17.32050808      10.00000000
  312      16.38304089      11.47152873
  313      15.32088886      12.85575219
  314      14.14213562      14.14213562
  315      12.85575219      15.32088886
  316      11.47152873      16.38304089
  317      10.00000000      17.32050808
  318       8.45236523      18.12615574
  319       6.84040287      18.79385242
  320       5.17638090      19.31851653
  321       3.47296355      19.69615506
  322       1.74311485      19.92389396
  323  1.45473231E-14      20.00000000
END vertices

BEGIN cell2d
  1       4.50992135       0.19690742  4  21  20  1  2
  2       4.47559813       0.58922367  4  22  21  2  3
  3       4.40721290       0.97705558  4  23  22  3  4
  4       4.30528612       1.35745150  4  24  23  4  5
  5       4.17059351       1.72751640  4  25  24  5  6
  6       4.00416017       2.08443385  4  26  25  6  7
  7       3.80725275       2.42548750  4  27  26  7  8
  8       3.58136984       2.74808173  4  28  27  8  9
  9       3.32823054       3.04976140  4  29  28  9  10
  10       3.04976140       3.32823054  4  30  29  10  11
  11       2.74808173       3.58136984  4  31  30  11  12
  12       2.42548750       3.80725275  4  32  31  12  13
  13       2.08443385       4.00416017  4  33  32  13  14
  14       1.72751640       4.17059351  4  34  33  14  15
  15       1.35745150       4.30528612  4  35  34  15  16
  16       0.97705558       4.40721290  4  36  35  16  17
  17       0.58922367       4.47559813  4  37  36  17  18
  18       0.19690742       4.50992135  4  38  37  18  19
  19       5.50465811       0.24033856  4  40  39  20  21
  20       5.46276433       0.71918657  4  41  40  21  22
  21       5.37929563       1.19256113  4  42  41  22  23
  22       5.25488723       1.65685958  4  43  42  23  24
  23       5.09048597       2.10854833  4  44  43  24  25
  24       4.88734304       2.54418975  4  45  44  25  26
  25       4.64700448       2.96046835  4  46  45  26  27
  26       4.37129940       3.35421601  4  47  46  27  28
  27       4.06232610       3.72243605  4  48  47  28  29
  28       3.72243605       4.06232610  4  49  48  29  30
  29       3.35421601       4.37129940  4  50  49  30  31
  30       2.96046835       4.64700448  4  51  50  31  32
  31       2.54418975       4.88734304  4  52  51  32  33
  32       2.10854833       5.09048597  4  53  52  33  34
  33       1.65685958       5.25488723  4  54  53  34  35
  34       1.19256113       5.37929563  4  55  54  35  36
  35       0.71918657       5.46276433  4  56  55  36  37
  36       0.24033856       5.50465811  4  57  56  37  38
  37       6.50042889       0.28381485  4  59  58  39  40
  38       6.45095670       0.84928456  4  60  59  40  41
  39       6.35238884       1.40829070  4  61  60  41  42
  40       6.20547546       1.95657890  4  62  61  42  43
  41       6.01133466       2.48997634  4  63  62  43  44
  42       5.77144398       3.00442357  4  64  63  44  45
  43       5.48762913       3.49600532  4  65  64  45  46
  44       5.16205010       3.96098036  4  66  65  46  47
  45       4.79718476       4.39580994  4  67  66  47  48
  46       4.39580994       4.79718476  4  68  67  48  49
  47       3.96098036       5.16205010  4  69  68  49  50
  48       3.49600532       5.48762913  4  70  69  50  51
  49       3.00442357       5.77144398  4  71  70  51  52
  50       2.48997634       6.01133466  4  72  71  52  53
  51       1.95657890       6.20547546  4  73  72  53  54
  52       1.40829070       6.35238884  4  74  73  54  55
  53       0.84928456       6.45095670  4  75  74  55  56
  54       0.28381485       6.50042889  4  76  75  56  57
  55       7.49682009       0.32731823  4  78  77  58  59
  56       7.43976476       0.97946361  4  79  78  59  60
  57       7.32608833       1.62415468  4  80  79  60  61
  58       7.15665595       2.25648495  4  81  80  61  62
  59       6.93275709       2.87164201  4  82  81  62  63
  60       6.65609576       3.46494414  4  83  82  63  64
  61       6.32877753       4.03187595  4  84  83  64  65
  62       5.95329347       4.56812275  4  85  84  65  66
  63       5.53250126       5.06960338  4  86  85  66  67
  64       5.06960338       5.53250126  4  87  86  67  68
  65       4.56812275       5.95329347  4  88  87  68  69
  66       4.03187595       6.32877753  4  89  88  69  70
  67       3.46494414       6.65609576  4  90  89  70  71
  68       2.87164201       6.93275709  4  91  90  71  72
  69       2.25648495       7.15665595  4  92  91  72  73
  70       1.62415468       7.32608833  4  93  92  73  74
  71       0.97946361       7.43976476  4  94  93  74  75
  72       0.32731823       7.49682009  4  95  94  75  76
  73       8.49361274       0.37083914  4  97  96  77  78
  74       8.42897121       1.10969511  4  98  97  78  79
  75       8.30018013       1.84010563  4  99  98  79  80
  76       8.10821967       2.55651184  4  100  99  80  81
  77       7.85455075       3.25346145  4  101  100  81  82
  78       7.54110397       3.92565025  4  102  101  82  83
  79       7.17026483       4.56796248  4  103  102  83  84
  80       6.74485564       5.17550976  4  104  103  84  85
  81       6.26811403       5.74366829  4  105  104  85  86
  82       5.74366829       6.26811403  4  106  105  86  87
  83       5.17550976       6.74485564  4  107  106  87  88
  84       4.56796248       7.17026483  4  108  107  88  89
  85       3.92565025       7.54110397  4  109  108  89  90
  86       3.25346145       7.85455075  4  110  109  90  91
  87       2.55651184       8.10821967  4  111  110  91  92
  88       1.84010563       8.30018013  4  112  111  92  93
  89       1.10969511       8.42897121  4  113  112  93  94
  90       0.37083914       8.49361274  4  114  113  94  95
  91       9.49068006       0.41437204  4  116  115  96  97
  92       9.41845025       1.23996250  4  117  116  97  98
  93       9.27454035       2.05611609  4  118  117  98  99
  94       9.06004560       2.85662140  4  119  118  99  100
  95       8.77659843       3.63538610  4  120  119  100  101
  96       8.42635605       4.38648331  4  121  120  101  102
  97       8.01198401       5.10419674  4  122  121  102  103
  98       7.53663593       5.78306415  4  123  122  103  104
  99       7.00392951       6.41791895  4  124  123  104  105
  100       6.41791895       7.00392951  4  125  124  105  106
  101       5.78306415       7.53663593  4  126  125  106  107
  102       5.10419674       8.01198401  4  127  126  107  108
  103       4.38648331       8.42635605  4  128  127  108  109
  104       3.63538610       8.77659843  4  129  128  109  110
  105       2.85662140       9.06004560  4  130  129  110  111
  106       2.05611609       9.27454035  4  131  130  111  112
  107       1.23996250       9.41845025  4  132  131  112  113
  108       0.41437204       9.49068006  4  133  132  113  114
  109      10.48794357       0.45791351  4  135  134  115  116
  110      10.40812399       1.37025552  4  136  135  116  117
  111      10.24909230       2.27216906  4  137  136  117  118
  112      10.01205883       3.15679002  4  138  137  118  119
  113       9.69882754       4.01738591  4  139  138  119  120
  114       9.31178232       4.84740706  4  140  139  120  121
  115       8.85386881       5.64053651  4  141  140  121  122
  116       8.32857202       6.39073808  4  142  141  122  123
  117       7.73988977       7.09230228  4  143  142  123  124
  118       7.09230228       7.73988977  4  144  143  124  125