# File generated by Flopy version 3.10.0.dev2 on 05/09/2025 at 15:27:42.
BEGIN options
  SAVE_FLOWS
END options

BEGIN dimensions
  MAXBOUND  18
END dimensions

BEGIN period  1
  1 271 3.33333333E+00
  1 272 3.33333333E+00
  1 273 3.33333333E+00
  1 274 3.33333333E+00
  1 275 3.33333333E+00
  1 276 3.33333333E+00
  1 277 3.33333333E+00
  1 278 3.33333333E+00
  1 279 3.33333333E+00
  1 280 3.33333333E+00
  1 281 3.33333333E+00
  1 282 3.33333333E+00
  1 283 3.33333333E+00
  1 284 3.33333333E+00
  1 285 3.33333333E+00
  1 286 3.33333333E+00
  1 287 3.33333333E+00
  1 288 3.33333333E+00
END period  1

