# File generated by Flopy version 3.10.0.dev2 on 05/09/2025 at 15:27:42.
BEGIN options
  BUDGET  FILEOUT  ex-gwf-curve-90.cbc
  HEAD  FILEOUT  ex-gwf-curve-90.hds
  HEAD  PRINT_FORMAT  COLUMNS  16  WIDTH  15  DIGITS  6  GENERAL
END options

BEGIN period  1
  SAVE  HEAD  ALL
  SAVE  BUDGET  ALL
  PRINT  HEAD  ALL
  PRINT  BUDGET  ALL
END period  1

