# File generated by Flopy version 3.10.0.dev2 on 05/09/2025 at 15:27:42.
BEGIN options
  SAVE_FLOWS
END options

BEGIN packages
  DISV6  ex-gwf-curve-90.disv  disv
  NPF6  ex-gwf-curve-90.npf  npf
  STO6  ex-gwf-curve-90.sto  sto
  IC6  ex-gwf-curve-90.ic  ic
  CHD6  ex-gwf-curve-90.inner.chd  chd-inner
  CHD6  ex-gwf-curve-90.outer.chd  chd-outer
  OC6  ex-gwf-curve-90.oc  oc
END packages

