# File generated by Flopy version 3.10.0.dev2 on 05/09/2025 at 15:27:42.
BEGIN options
END options

BEGIN timing
  TDIS6  ex-gwf-curve-90.tdis
END timing

BEGIN models
  gwf6  ex-gwf-curve-90.nam  ex-gwf-curve-90
END models

BEGIN exchanges
END exchanges

BEGIN solutiongroup  1
  ims6  ex-gwf-curve-90.ims  ex-gwf-curve-90
END solutiongroup  1

