# File generated by Flopy version 3.10.0.dev2 on 05/09/2025 at 15:28:46.
BEGIN options
  DENSEREF    1000.00000000
END options

BEGIN dimensions
  NRHOSPECIES  1
END dimensions

BEGIN packagedata
  1       0.70000000       0.00000000  trans  concentration
END packagedata

