# File generated by Flopy version 3.10.0.dev2 on 05/09/2025 at 15:28:46.
BEGIN options
  SAVE_FLOWS
END options

BEGIN packages
  DIS6  flow.dis  dis
  NPF6  flow.npf  npf
  IC6  flow.ic  ic
  BUY6  flow.buy  buy
  OC6  flow.oc  oc
END packages

