# File generated by Flopy version 3.10.0.dev2 on 05/09/2025 at 15:28:46.
BEGIN options
END options

BEGIN griddata
  strt  LAYERED
    INTERNAL  FACTOR  1.0
          35.00000000      35.00000000      35.00000000      35.00000000      35.00000000      35.00000000      35.00000000      35.00000000      35.00000000      35.00000000      35.00000000      35.00000000      35.00000000      35.00000000      35.00000000      35.00000000      35.00000000      35.00000000      35.00000000      35.00000000      35.00000000      35.00000000      35.00000000      35.00000000      35.00000000      35.00000000      35.00000000      35.00000000      35.00000000      35.00000000      35.00000000      35.00000000      35.00000000      35.00000000      35.00000000      35.00000000      35.00000000      35.00000000      35.00000000      35.00000000      35.00000000      35.00000000      35.00000000      35.00000000      35.00000000      35.00000000      35.00000000      35.00000000      35.00000000      35.00000000      35.00000000      35.00000000      35.00000000      35.00000000      35.00000000      35.00000000      35.00000000      35.00000000      35.00000000      35.00000000      35.00000000      35.00000000      35.00000000      35.00000000      35.00000000      35.00000000      35.00000000      35.00000000      35.00000000      35.00000000      35.00000000      35.00000000      35.00000000      35.00000000      35.00000000      35.00000000      35.00000000      35.00000000      35.00000000      35.00000000      35.00000000      35.00000000      35.00000000      35.00000000      35.00000000      35.00000000      35.00000000      35.00000000      35.00000000      35.00000000      35.00000000      17.50000000      17.50000000      17.50000000      17.50000000      17.50000000      17.50000000      17.50000000      17.50000000      17.50000000      17.50000000      17.50000000      17.50000000      17.50000000      17.50000000      17.50000000      17.50000000      17.50000000      17.50000000      17.50000000      17.50000000      17.50000000      17.50000000      17.50000000      17.50000000      17.50000000      17.50000000      17.50000000      17.50000000      17.50000000      17.50000000      17.50000000      17.50000000      17.50000000      17.50000000      17.50000000      17.50000000      17.50000000      17.50000000      17.50000000      17.50000000       0.00000000       0.00000000       0.00000000       0.00000000       0.00000000       0.00000000       0.00000000       0.00000000       0.00000000       0.00000000       0.00000000       0.00000000       0.00000000       0.00000000       0.00000000       0.00000000       0.00000000       0.00000000       0.00000000       0.00000000       0.00000000       0.00000000       0.00000000       0.00000000       0.00000000       0.00000000       0.00000000       0.00000000       0.00000000       0.00000000       0.00000000       0.00000000       0.00000000       0.00000000       0.00000000       0.00000000       0.00000000       0.00000000       0.00000000       0.00000000       0.00000000       0.00000000       0.00000000       0.00000000       0.00000000       0.00000000       0.00000000       0.00000000       0.00000000       0.00000000       0.00000000       0.00000000       0.00000000       0.00000000       0.00000000       0.00000000       0.00000000       0.00000000       0.00000000       0.00000000       0.00000000       0.00000000       0.00000000       0.00000000       0.00000000       0.00000000       0.00000000       0.00000000       0.00000000       0.00000000       0.00000000       0.00000000       0.00000000       0.00000000       0.00000000       0.00000000       0.00000000       0.00000000       0.00000000       0.00000000       0.00000000       0.00000000       0.00000000       0.00000000       0.00000000       0.00000000       0.00000000       0.00000000       0.00000000       0.00000000       0.00000000       0.00000000       0.00000000       0.00000000       0.00000000       0.00000000       0.00000000       0.00000000       0.00000000       0.00000000       0.00000000       0.00000000       0.00000000       0.00000000       0.00000000       0.00000000       0.00000000       0.00000000       0.00000000       0.00000000       0.00000000       0.00000000       0.00000000       0.00000000       0.00000000       0.00000000       0.00000000       0.00000000       0.00000000       0.00000000       0.00000000       0.00000000       0.00000000       0.00000000       0.00000000       0.00000000       0.00000000       0.00000000       0.00000000       0.00000000       0.00000000       0.00000000       0.00000000       0.00000000       0.00000000       0.00000000       0.00000000       0.00000000       0.00000000       0.00000000       0.00000000       0.00000000       0.00000000       0.00000000       0.00000000       0.00000000       0.00000000       0.00000000       0.00000000       0.00000000       0.00000000       0.00000000       0.00000000       0.00000000       0.00000000       0.00000000       0.00000000       0.00000000       0.00000000       0.00000000       0.00000000       0.00000000       0.00000000       0.00000000       0.00000000       0.00000000       0.00000000       0.00000000       0.00000000
    INTERNAL  FACTOR  1.0
          35.00000000      35.00000000      35.00000000      35.00000000      35.00000000      35.00000000      35.00000000      35.00000000      35.00000000      35.00000000      35.00000000      35.00000000      35.00000000      35.00000000      35.00000000      35.00000000      35.00000000      35.00000000      35.00000000      35.00000000      35.00000000      35.00000000      35.00000000      35.00000000      35.00000000      35.00000000      35.00000000      35.00000000      35.00000000      35.00000000      35.00000000      35.00000000      35.00000000      35.00000000      35.00000000      35.00000000      35.00000000      35.00000000      35.00000000      35.00000000      35.00000000      35.00000000      35.00000000      35.00000000      35.00000000      35.00000000      35.00000000      35.00000000      35.00000000      35.00000000      35.00000000      35.00000000      35.00000000      35.00000000      35.00000000      35.00000000      35.00000000      35.00000000      35.00000000      35.00000000      35.00000000      35.00000000      35.00000000      35.00000000      35.00000000      35.00000000      35.00000000      35.00000000      35.00000000      35.00000000      35.00000000      35.00000000      35.00000000      35.00000000      35.00000000      35.00000000      35.00000000      35.00000000      35.00000000      35.00000000      35.00000000      35.00000000      35.00000000      35.00000000      35.00000000      35.00000000      35.00000000      35.00000000      35.00000000      35.00000000      35.00000000      35.00000000      17.50000000      17.50000000      17.50000000      17.50000000      17.50000000      17.50000000      17.50000000      17.50000000      17.50000000      17.50000000      17.50000000      17.50000000      17.50000000      17.50000000      17.50000000      17.50000000      17.50000000      17.50000000      17.50000000      17.50000000      17.50000000      17.50000000      17.50000000      17.50000000      17.50000000      17.50000000      17.50000000      17.50000000      17.50000000      17.50000000      17.50000000      17.50000000      17.50000000      17.50000000      17.50000000      17.50000000      17.50000000      17.50000000      17.50000000      17.50000000       0.00000000       0.00000000       0.00000000       0.00000000       0.00000000       0.00000000       0.00000000       0.00000000       0.00000000       0.00000000       0.00000000       0.00000000       0.00000000       0.00000000       0.00000000       0.00000000       0.00000000       0.00000000       0.00000000       0.00000000       0.00000000       0.00000000       0.00000000       0.00000000       0.00000000       0.00000000       0.00000000       0.00000000       0.00000000       0.00000000       0.00000000       0.00000000       0.00000000       0.00000000       0.00000000       0.00000000       0.00000000       0.00000000       0.00000000       0.00000000       0.00000000       0.00000000       0.00000000       0.00000000       0.00000000       0.00000000       0.00000000       0.00000000       0.00000000       0.00000000       0.00000000       0.00000000       0.00000000       0.00000000       0.00000000       0.00000000       0.00000000       0.00000000       0.00000000       0.00000000       0.00000000       0.00000000       0.00000000       0.00000000       0.00000000       0.00000000       0.00000000       0.00000000       0.00000000       0.00000000       0.00000000       0.00000000       0.00000000       0.00000000       0.00000000       0.00000000       0.00000000       0.00000000       0.00000000       0.00000000       0.00000000       0.00000000       0.00000000       0.00000000       0.00000000       0.00000000       0.00000000       0.00000000       0.00000000       0.00000000       0.00000000       0.00000000       0.00000000       0.00000000       0.00000000       0.00000000       0.00000000       0.00000000       0.00000000       0.00000000       0.00000000       0.00000000       0.00000000       0.00000000       0.00000000       0.00000000       0.00000000       0.00000000       0.00000000       0.00000000       0.00000000       0.00000000       0.00000000       0.00000000       0.00000000       0.00000000       0.00000000       0.00000000       0.00000000       0.00000000       0.00000000       0.00000000       0.00000000       0.00000000       0.00000000       0.00000000       0.00000000       0.00000000       0.00000000       0.00000000       0.00000000       0.00000000       0.00000000       0.00000000       0.00000000       0.00000000       0.00000000       0.00000000       0.00000000       0.00000000       0.00000000       0.00000000       0.00000000       0.00000000       0.00000000       0.00000000       0.00000000       0.00000000       0.00000000       0.00000000       0.00000000       0.00000000       0.00000000       0.00000000       0.00000000       0.00000000       0.00000000       0.00000000       0.00000000       0.00000000       0.00000000       0.00000000       0.00000000       0.00000000       0.00000000       0.00000000       0.00000000       0.00000000
    INTERNAL  FACTOR  1.0
          35.00000000      35.00000000      35.00000000      35.00000000      35.00000000      35.00000000      35.00000000      35.00000000      35.00000000      35.00000000      35.00000000      35.00000000      35.00000000      35.00000000      35.00000000      35.00000000      35.00000000      35.00000000      35.00000000      35.00000000      35.00000000      35.00000000      35.00000000      35.00000000      35.00000000      35.00000000      35.00000000      35.00000000      35.00000000      35.00000000      35.00000000      35.00000000      35.00000000      35.00000000      35.00000000      35.00000000      35.00000000      35.00000000      35.00000000      35.00000000      35.00000000      35.00000000      35.00000000      35.00000000      35.00000000      35.00000000      35.00000000      35.00000000      35.00000000      35.00000000      35.00000000      35.00000000      35.00000000      35.00000000      35.00000000      35.00000000      35.00000000      35.00000000      35.00000000      35.00000000      35.00000000      35.00000000      35.00000000      35.00000000      35.00000000      35.00000000      35.00000000      35.00000000      35.00000000      35.00000000      35.00000000      35.00000000      35.00000000      35.00000000      35.00000000      35.00000000      35.00000000      35.00000000      35.00000000      35.00000000      35.00000000      35.00000000      35.00000000      35.00000000      35.00000000      35.00000000      35.00000000      35.00000000      35.00000000      35.00000000      35.00000000      35.00000000      35.00000000      17.50000000      17.50000000      17.50000000      17.50000000      17.50000000      17.50000000      17.50000000      17.50000000      17.50000000      17.50000000      17.50000000      17.50000000      17.50000000      17.50000000      17.50000000      17.50000000      17.50000000      17.50000000      17.50000000      17.50000000      17.50000000      17.50000000      17.50000000      17.50000000      17.50000000      17.50000000      17.50000000      17.50000000      17.50000000      17.50000000      17.50000000      17.50000000      17.50000000      17.50000000      17.50000000      17.50000000      17.50000000      17.50000000      17.50000000      17.50000000       0.00000000       0.00000000       0.00000000       0.00000000       0.00000000       0.00000000       0.00000000       0.00000000       0.00000000       0.00000000       0.00000000       0.00000000       0.00000000       0.00000000       0.00000000       0.00000000       0.00000000       0.00000000       0.00000000       0.00000000       0.00000000       0.00000000       0.00000000       0.00000000       0.00000000       0.00000000       0.00000000       0.00000000       0.00000000       0.00000000       0.00000000       0.00000000       0.00000000       0.00000000       0.00000000       0.00000000       0.00000000       0.00000000       0.00000000       0.00000000       0.00000000       0.00000000       0.00000000       0.00000000       0.00000000       0.00000000       0.00000000       0.00000000       0.00000000       0.00000000       0.00000000       0.00000000       0.00000000       0.00000000       0.00000000       0.00000000       0.00000000       0.00000000       0.00000000       0.00000000       0.00000000       0.00000000       0.00000000       0.00000000       0.00000000       0.00000000       0.00000000       0.00000000       0.00000000       0.00000000       0.00000000       0.00000000       0.00000000       0.00000000       0.00000000       0.00000000       0.00000000       0.00000000       0.00000000       0.00000000       0.00000000       0.00000000       0.00000000       0.00000000       0.00000000       0.00000000       0.00000000       0.00000000       0.00000000       0.00000000       0.00000000       0.00000000       0.00000000       0.00000000       0.00000000       0.00000000       0.00000000       0.00000000       0.00000000       0.00000000       0.00000000       0.00000000       0.00000000       0.00000000       0.00000000       0.00000000       0.00000000       0.00000000       0.00000000       0.00000000       0.00000000       0.00000000       0.00000000       0.00000000       0.00000000       0.00000000       0.00000000       0.00000000       0.00000000       0.00000000       0.00000000       0.00000000       0.00000000       0.00000000       0.00000000       0.00000000       0.00000000       0.00000000       0.00000000       0.00000000       0.00000000       0.00000000       0.00000000       0.00000000       0.00000000       0.00000000       0.00000000       0.00000000       0.00000000       0.00000000       0.00000000       0.00000000       0.00000000       0.00000000       0.00000000       0.00000000       0.00000000       0.00000000       0.00000000       0.00000000       0.00000000       0.00000000       0.00000000       0.00000000       0.00000000       0.00000000       0.00000000       0.00000000       0.00000000       0.00000000       0.00000000       0.00000000       0.00000000       0.00000000       0.00000000       0.00000000       0.00000000
    INTERNAL  FACTOR  1.0
          35.00000000      35.00000000      35.00000000      35.00000000      35.00000000      35.00000000      35.00000000      35.00000000      35.00000000      35.00000000      35.00000000      35.00000000      35.00000000      35.00000000      35.00000000      35.00000000      35.00000000      35.00000000      35.00000000      35.00000000      35.00000000      35.00000000      35.00000000      35.00000000      35.00000000      35.00000000      35.00000000      35.00000000      35.00000000      35.00000000      35.00000000      35.00000000      35.00000000      35.00000000      35.00000000      35.00000000      35.00000000      35.00000000      35.00000000      35.00000000      35.00000000      35.00000000      35.00000000      35.00000000      35.00000000      35.00000000      35.00000000      35.00000000      35.00000000      35.00000000      35.00000000      35.00000000      35.00000000      35.00000000      35.00000000      35.00000000      35.00000000      35.00000000      35.00000000      35.00000000      35.00000000      35.00000000      35.00000000      35.00000000      35.00000000      35.00000000      35.00000000      35.00000000      35.00000000      35.00000000      35.00000000      35.00000000      35.00000000      35.00000000      35.00000000      35.00000000      35.00000000      35.00000000      35.00000000      35.00000000      35.00000000      35.00000000      35.00000000      35.00000000      35.00000000      35.00000000      35.00000000      35.00000000      35.00000000      35.00000000      35.00000000      35.00000000      35.00000000      35.00000000      17.50000000      17.50000000      17.50000000      17.50000000      17.50000000      17.50000000      17.50000000      17.50000000      17.50000000      17.50000000      17.50000000      17.50000000      17.50000000      17.50000000      17.50000000      17.50000000      17.50000000      17.50000000      17.50000000      17.50000000      17.50000000      17.50000000      17.50000000      17.50000000      17.50000000      17.50000000      17.50000000      17.50000000      17.50000000      17.50000000      17.50000000      17.50000000      17.50000000      17.50000000      17.50000000      17.50000000      17.50000000      17.50000000      17.50000000      17.50000000       0.00000000       0.00000000       0.00000000       0.00000000       0.00000000       0.00000000       0.00000000       0.00000000       0.00000000       0.00000000       0.00000000       0.00000000       0.00000000       0.00000000       0.00000000       0.00000000       0.00000000       0.00000000       0.00000000       0.00000000       0.00000000       0.00000000       0.00000000       0.00000000       0.00000000       0.00000000       0.00000000       0.00000000       0.00000000       0.00000000       0.00000000       0.00000000       0.00000000       0.00000000       0.00000000       0.00000000       0.00000000       0.00000000       0.00000000       0.00000000       0.00000000       0.00000000       0.00000000       0.00000000       0.00000000       0.00000000       0.00000000       0.00000000       0.00000000       0.00000000       0.00000000       0.00000000       0.00000000       0.00000000       0.00000000       0.00000000       0.00000000       0.00000000       0.00000000       0.00000000       0.00000000       0.00000000       0.00000000       0.00000000       0.00000000       0.00000000       0.00000000       0.00000000       0.00000000       0.00000000       0.00000000       0.00000000       0.00000000       0.00000000       0.00000000       0.00000000       0.00000000       0.00000000       0.00000000       0.00000000       0.00000000       0.00000000       0.00000000       0.00000000       0.00000000       0.00000000       0.00000000       0.00000000       0.00000000       0.00000000       0.00000000       0.00000000       0.00000000       0.00000000       0.00000000       0.00000000       0.00000000       0.00000000       0.00000000       0.00000000       0.00000000       0.00000000       0.00000000       0.00000000       0.00000000       0.00000000       0.00000000       0.00000000       0.00000000       0.00000000       0.00000000       0.00000000       0.00000000       0.00000000       0.00000000       0.00000000       0.00000000       0.00000000       0.00000000       0.00000000       0.00000000       0.00000000       0.00000000       0.00000000       0.00000000       0.00000000       0.00000000       0.00000000       0.00000000       0.00000000       0.00000000       0.00000000       0.00000000       0.00000000       0.00000000       0.00000000       0.00000000       0.00000000       0.00000000       0.00000000       0.00000000       0.00000000       0.00000000       0.00000000       0.00000000       0.00000000       0.00000000       0.00000000       0.00000000       0.00000000       0.00000000       0.00000000       0.00000000       0.00000000       0.00000000       0.00000000       0.00000000       0.00000000       0.00000000       0.00000000       0.00000000       0.00000000       0.00000000       0.00000000       0.00000000       0.00000000
    INTERNAL  FACTOR  1.0
          35.00000000      35.00000000      35.00000000      35.00000000      35.00000000      35.00000000      35.00000000      35.00000000      35.00000000      35.00000000      35.00000000      35.00000000      35.00000000      35.00000000      35.00000000      35.00000000      35.00000000      35.00000000      35.00000000      35.00000000      35.00000000      35.00000000      35.00000000      35.00000000      35.00000000      35.00000000      35.00000000      35.00000000      35.00000000      35.00000000      35.00000000      35.00000000      35.00000000      35.00000000      35.00000000      35.00000000      35.00000000      35.00000000      35.00000000      35.00000000      35.00000000      35.00000000      35.00000000      35.00000000      35.00000000      35.00000000      35.00000000      35.00000000      35.00000000      35.00000000      35.00000000      35.00000000      35.00000000      35.00000000      35.00000000      35.00000000      35.00000000      35.00000000      35.00000000      35.00000000      35.00000000      35.00000000      35.00000000      35.00000000      35.00000000      35.00000000      35.00000000      35.00000000      35.00000000      35.00000000      35.00000000      35.00000000      35.00000000      35.00000000      35.00000000      35.00000000      35.00000000      35.00000000      35.00000000      35.00000000      35.00000000      35.00000000      35.00000000      35.00000000      35.00000000      35.00000000      35.00000000      35.00000000      35.00000000      35.00000000      35.00000000      35.00000000      35.00000000      35.00000000      35.00000000      17.50000000      17.50000000      17.50000000      17.50000000      17.50000000      17.50000000      17.50000000      17.50000000      17.50000000      17.50000000      17.50000000      17.50000000      17.50000000      17.50000000      17.50000000      17.50000000      17.50000000      17.50000000      17.50000000      17.50000000      17.50000000      17.50000000      17.50000000      17.50000000      17.50000000      17.50000000      17.50000000      17.50000000      17.50000000      17.50000000      17.50000000      17.50000000      17.50000000      17.50000000      17.50000000      17.50000000      17.50000000      17.50000000      17.50000000      17.50000000       0.00000000       0.00000000       0.00000000       0.00000000       0.00000000       0.00000000       0.00000000       0.00000000       0.00000000       0.00000000       0.00000000       0.00000000       0.00000000       0.00000000       0.00000000       0.00000000       0.00000000       0.00000000       0.00000000       0.00000000       0.00000000       0.00000000       0.00000000       0.00000000       0.00000000       0.00000000       0.00000000       0.00000000       0.00000000       0.00000000       0.00000000       0.00000000       0.00000000       0.00000000       0.00000000       0.00000000       0.00000000       0.00000000       0.00000000       0.00000000       0.00000000       0.00000000       0.00000000       0.00000000       0.00000000       0.00000000       0.00000000       0.00000000       0.00000000       0.00000000       0.00000000       0.00000000       0.00000000       0.00000000       0.00000000       0.00000000       0.00000000       0.00000000       0.00000000       0.00000000       0.00000000       0.00000000       0.00000000       0.00000000       0.00000000       0.00000000       0.00000000       0.00000000       0.00000000       0.00000000       0.00000000       0.00000000       0.00000000       0.00000000       0.00000000       0.00000000       0.00000000       0.00000000       0.00000000       0.00000000       0.00000000       0.00000000       0.00000000       0.00000000       0.00000000       0.00000000       0.00000000       0.00000000       0.00000000       0.00000000       0.00000000       0.00000000       0.00000000       0.00000000       0.00000000       0.00000000       0.00000000       0.00000000       0.00000000       0.00000000       0.00000000       0.00000000       0.00000000       0.00000000       0.00000000       0.00000000       0.00000000       0.00000000       0.00000000       0.00000000       0.00000000       0.00000000       0.00000000       0.00000000       0.00000000       0.00000000       0.00000000       0.00000000       0.00000000       0.00000000       0.00000000       0.00000000       0.00000000       0.00000000       0.00000000       0.00000000       0.00000000       0.00000000       0.00000000       0.00000000       0.00000000       0.00000000       0.00000000       0.00000000       0.00000000       0.00000000       0.00000000       0.00000000       0.00000000       0.00000000       0.00000000       0.00000000       0.00000000       0.00000000       0.00000000       0.00000000       0.00000000       0.00000000       0.00000000       0.00000000       0.00000000       0.00000000       0.00000000       0.00000000       0.00000000       0.00000000       0.00000000       0.00000000       0.00000000       0.00000000       0.00000000       0.00000000       0.00000000       0.00000000       0.00000000
    INTERNAL  FACTOR  1.0