# File generated by Flopy version 3.10.0.dev2 on 05/09/2025 at 15:29:23.
BEGIN options
  SAVE_FLOWS
  NEWTON
END options

BEGIN packages
  DIS6  ex-gwf-sfr-p01.dis  dis
  NPF6  ex-gwf-sfr-p01.npf  npf
  STO6  ex-gwf-sfr-p01.sto  sto
  IC6  ex-gwf-sfr-p01.ic  ic
  GHB6  ex-gwf-sfr-p01.ghb  ghb_0
  WEL6  ex-gwf-sfr-p01.wel  wel_0
  RCH6  ex-gwf-sfr-p01.rcha  rcha_0
  EVT6  ex-gwf-sfr-p01.evta  evta_0
  SFR6  ex-gwf-sfr-p01.sfr  sfr_0
  OC6  ex-gwf-sfr-p01.oc  oc
END packages

