# File generated by Flopy version 3.10.0.dev2 on 05/09/2025 at 15:29:23.
BEGIN options
  DIGITS  10
  PRINT_INPUT
END options

BEGIN continuous  FILEOUT  ex-gwf-sfr-p01.sfr.obs.csv
  r01_stage  stage  4
  r02_stage  stage  15
  r03_stage  stage  27
  r04_stage  stage  36
  r01_flow  downstream-flow  4
  r02_flow  downstream-flow  15
  r03_flow  downstream-flow  27
  r04_flow  downstream-flow  36
END continuous  FILEOUT  ex-gwf-sfr-p01.sfr.obs.csv

