# MPSIM package for MODPATH 7 generated by Flopy 3.9.3
modpath_ASW16767.mpnam
modpath_ASW16767.mplst
2 2 2 2 1 0
modpath_ASW16767.mpend
modpath_ASW16767.mppth
0
1
0
2
1
1
1
PG1
1
0.0
INTERNAL
1
1
1 0
         1        51        51             0.5             0.5             0.5               0         0
