# File generated by Flopy version 3.10.0.dev2 on 05/09/2025 at 15:27:36.
BEGIN options
  BUDGET  FILEOUT  gwe-ates.cbc
  TEMPERATURE  FILEOUT  gwe-ates.ucn
  TEMPERATURE  PRINT_FORMAT  COLUMNS  10  WIDTH  15  DIGITS  6  GENERAL
END options

BEGIN period  1
  SAVE  TEMPERATURE  ALL
  SAVE  BUDGET  ALL
  PRINT  TEMPERATURE  ALL
  PRINT  BUDGET  ALL
END period  1

