# File generated by Flopy version 3.10.0.dev2 on 05/09/2025 at 15:27:35.
BEGIN options
  SAVE_FLOWS
END options

BEGIN packages
  DISV6  gwf-ates.disv  disv
  NPF6  gwf-ates.npf  npf
  IC6  gwf-ates.ic  ic
  STO6  gwf-ates.sto  sto
  WEL6  gwf-ates.wel  wel
  OC6  gwf-ates.oc  oc
END packages

