# File generated by Flopy version 3.10.0.dev2 on 05/09/2025 at 15:28:09.
BEGIN options
  auxiliary  ANGLDEGX  CDIST
  BOUNDNAMES
  PRINT_INPUT
  PRINT_FLOWS
  SAVE_FLOWS
  XT3D
END options

BEGIN dimensions
  NEXG  36
END dimensions

BEGIN exchangedata
  1 3 2  1 1 1  1      50.00000000      16.66666667      33.33333333       0.00000000      74.53559925  left
  1 3 2  1 2 1  1      50.00000000      16.66666667      33.33333333       0.00000000      66.66666667  left
  1 3 2  1 3 1  1      50.00000000      16.66666667      33.33333333       0.00000000      74.53559925  left
  1 4 2  1 4 1  1      50.00000000      16.66666667      33.33333333       0.00000000      74.53559925  left
  1 4 2  1 5 1  1      50.00000000      16.66666667      33.33333333       0.00000000      66.66666667  left
  1 4 2  1 6 1  1      50.00000000      16.66666667      33.33333333       0.00000000      74.53559925  left
  1 5 2  1 7 1  1      50.00000000      16.66666667      33.33333333       0.00000000      74.53559925  left
  1 5 2  1 8 1  1      50.00000000      16.66666667      33.33333333       0.00000000      66.66666667  left
  1 5 2  1 9 1  1      50.00000000      16.66666667      33.33333333       0.00000000      74.53559925  left
  1 6 3  1 9 1  1      50.00000000      16.66666667      33.33333333      90.00000000      74.53559925  bottom
  1 6 3  1 9 2  1      50.00000000      16.66666667      33.33333333      90.00000000      66.66666667  bottom
  1 6 3  1 9 3  1      50.00000000      16.66666667      33.33333333      90.00000000      74.53559925  bottom
  1 6 4  1 9 4  1      50.00000000      16.66666667      33.33333333      90.00000000      74.53559925  bottom
  1 6 4  1 9 5  1      50.00000000      16.66666667      33.33333333      90.00000000      66.66666667  bottom
  1 6 4  1 9 6  1      50.00000000      16.66666667      33.33333333      90.00000000      74.53559925  bottom
  1 6 5  1 9 7  1      50.00000000      16.66666667      33.33333333      90.00000000      74.53559925  bottom
  1 6 5  1 9 8  1      50.00000000      16.66666667      33.33333333      90.00000000      66.66666667  bottom
  1 6 5  1 9 9  1      50.00000000      16.66666667      33.33333333      90.00000000      74.53559925  bottom
  1 3 6  1 1 9  1      50.00000000      16.66666667      33.33333333     180.00000000      74.53559925  right
  1 3 6  1 2 9  1      50.00000000      16.66666667      33.33333333     180.00000000      66.66666667  right
  1 3 6  1 3 9  1      50.00000000      16.66666667      33.33333333     180.00000000      74.53559925  right
  1 4 6  1 4 9  1      50.00000000      16.66666667      33.33333333     180.00000000      74.53559925  right
  1 4 6  1 5 9  1      50.00000000      16.66666667      33.33333333     180.00000000      66.66666667  right
  1 4 6  1 6 9  1      50.00000000      16.66666667      33.33333333     180.00000000      74.53559925  right
  1 5 6  1 7 9  1      50.00000000      16.66666667      33.33333333     180.00000000      74.53559925  right
  1 5 6  1 8 9  1      50.00000000      16.66666667      33.33333333     180.00000000      66.66666667  right
  1 5 6  1 9 9  1      50.00000000      16.66666667      33.33333333     180.00000000      74.53559925  right
  1 2 3  1 1 1  1      50.00000000      16.66666667      33.33333333     270.00000000      74.53559925  top
  1 2 3  1 1 2  1      50.00000000      16.66666667      33.33333333     270.00000000      66.66666667  top
  1 2 3  1 1 3  1      50.00000000      16.66666667      33.33333333     270.00000000      74.53559925  top
  1 2 4  1 1 4  1      50.00000000      16.66666667      33.33333333     270.00000000      74.53559925  top
  1 2 4  1 1 5  1      50.00000000      16.66666667      33.33333333     270.00000000      66.66666667  top
  1 2 4  1 1 6  1      50.00000000      16.66666667      33.33333333     270.00000000      74.53559925  top
  1 2 5  1 1 7  1      50.00000000      16.66666667      33.33333333     270.00000000      74.53559925  top
  1 2 5  1 1 8  1      50.00000000      16.66666667      33.33333333     270.00000000      66.66666667  top
  1 2 5  1 1 9  1      50.00000000      16.66666667      33.33333333     270.00000000      74.53559925  top
END exchangedata

