# File generated by Flopy version 3.10.0.dev2 on 05/09/2025 at 15:28:09.
BEGIN options
  SAVE_FLOWS
END options

BEGIN packages
  DIS6  inner.dis  dis
  IC6  inner.ic  ic
  NPF6  inner.npf  npf
  OC6  inner.oc  oc
END packages

