# File generated by Flopy version 3.10.0.dev2 on 05/09/2025 at 15:29:09.
BEGIN options
  EXIT_SOLVE_TOLERANCE  1.00000000E-05
  LOCAL_Z
  EXTEND_TRACKING
END options

BEGIN dimensions
  NRELEASEPTS  100
  NRELEASETIMES  10
END dimensions

BEGIN packagedata
  1  1 3 3    1050.00000000    9050.00000000       0.50000000
  2  1 3 3    1150.00000000    9050.00000000       0.50000000
  3  1 3 3    1250.00000000    9050.00000000       0.50000000
  4  1 3 3    1350.00000000    9050.00000000       0.50000000
  5  1 3 3    1450.00000000    9050.00000000       0.50000000
  6  1 3 3    1050.00000000    9150.00000000       0.50000000
  7  1 3 3    1150.00000000    9150.00000000       0.50000000
  8  1 3 3    1250.00000000    9150.00000000       0.50000000
  9  1 3 3    1350.00000000    9150.00000000       0.50000000
  10  1 3 3    1450.00000000    9150.00000000       0.50000000
  11  1 3 3    1050.00000000    9250.00000000       0.50000000
  12  1 3 3    1150.00000000    9250.00000000       0.50000000
  13  1 3 3    1250.00000000    9250.00000000       0.50000000
  14  1 3 3    1350.00000000    9250.00000000       0.50000000
  15  1 3 3    1450.00000000    9250.00000000       0.50000000
  16  1 3 3    1050.00000000    9350.00000000       0.50000000
  17  1 3 3    1150.00000000    9350.00000000       0.50000000
  18  1 3 3    1250.00000000    9350.00000000       0.50000000
  19  1 3 3    1350.00000000    9350.00000000       0.50000000
  20  1 3 3    1450.00000000    9350.00000000       0.50000000
  21  1 3 3    1050.00000000    9450.00000000       0.50000000
  22  1 3 3    1150.00000000    9450.00000000       0.50000000
  23  1 3 3    1250.00000000    9450.00000000       0.50000000
  24  1 3 3    1350.00000000    9450.00000000       0.50000000
  25  1 3 3    1450.00000000    9450.00000000       0.50000000
  26  1 3 4    1550.00000000    9050.00000000       0.50000000
  27  1 3 4    1650.00000000    9050.00000000       0.50000000
  28  1 3 4    1750.00000000    9050.00000000       0.50000000
  29  1 3 4    1850.00000000    9050.00000000       0.50000000
  30  1 3 4    1950.00000000    9050.00000000       0.50000000
  31  1 3 4    1550.00000000    9150.00000000       0.50000000
  32  1 3 4    1650.00000000    9150.00000000       0.50000000
  33  1 3 4    1750.00000000    9150.00000000       0.50000000
  34  1 3 4    1850.00000000    9150.00000000       0.50000000
  35  1 3 4    1950.00000000    9150.00000000       0.50000000
  36  1 3 4    1550.00000000    9250.00000000       0.50000000
  37  1 3 4    1650.00000000    9250.00000000       0.50000000
  38  1 3 4    1750.00000000    9250.00000000       0.50000000
  39  1 3 4    1850.00000000    9250.00000000       0.50000000
  40  1 3 4    1950.00000000    9250.00000000       0.50000000
  41  1 3 4    1550.00000000    9350.00000000       0.50000000
  42  1 3 4    1650.00000000    9350.00000000       0.50000000
  43  1 3 4    1750.00000000    9350.00000000       0.50000000
  44  1 3 4    1850.00000000    9350.00000000       0.50000000
  45  1 3 4    1950.00000000    9350.00000000       0.50000000
  46  1 3 4    1550.00000000    9450.00000000       0.50000000
  47  1 3 4    1650.00000000    9450.00000000       0.50000000
  48  1 3 4    1750.00000000    9450.00000000       0.50000000
  49  1 3 4    1850.00000000    9450.00000000       0.50000000
  50  1 3 4    1950.00000000    9450.00000000       0.50000000
  51  1 4 3    1050.00000000    8550.00000000       0.50000000
  52  1 4 3    1150.00000000    8550.00000000       0.50000000
  53  1 4 3    1250.00000000    8550.00000000       0.50000000
  54  1 4 3    1350.00000000    8550.00000000       0.50000000
  55  1 4 3    1450.00000000    8550.00000000       0.50000000
  56  1 4 3    1050.00000000    8650.00000000       0.50000000
  57  1 4 3    1150.00000000    8650.00000000       0.50000000
  58  1 4 3    1250.00000000    8650.00000000       0.50000000
  59  1 4 3    1350.00000000    8650.00000000       0.50000000
  60  1 4 3    1450.00000000    8650.00000000       0.50000000
  61  1 4 3    1050.00000000    8750.00000000       0.50000000
  62  1 4 3    1150.00000000    8750.00000000       0.50000000
  63  1 4 3    1250.00000000    8750.00000000       0.50000000
  64  1 4 3    1350.00000000    8750.00000000       0.50000000
  65  1 4 3    1450.00000000    8750.00000000       0.50000000
  66  1 4 3    1050.00000000    8850.00000000       0.50000000
  67  1 4 3    1150.00000000    8850.00000000       0.50000000
  68  1 4 3    1250.00000000    8850.00000000       0.50000000
  69  1 4 3    1350.00000000    8850.00000000       0.50000000
  70  1 4 3    1450.00000000    8850.00000000       0.50000000
  71  1 4 3    1050.00000000    8950.00000000       0.50000000
  72  1 4 3    1150.00000000    8950.00000000       0.50000000
  73  1 4 3    1250.00000000    8950.00000000       0.50000000
  74  1 4 3    1350.00000000    8950.00000000       0.50000000
  75  1 4 3    1450.00000000    8950.00000000       0.50000000
  76  1 4 4    1550.00000000    8550.00000000       0.50000000
  77  1 4 4    1650.00000000    8550.00000000       0.50000000
  78  1 4 4    1750.00000000    8550.00000000       0.50000000
  79  1 4 4    1850.00000000    8550.00000000       0.50000000
  80  1 4 4    1950.00000000    8550.00000000       0.50000000
  81  1 4 4    1550.00000000    8650.00000000       0.50000000
  82  1 4 4    1650.00000000    8650.00000000       0.50000000
  83  1 4 4    1750.00000000    8650.00000000       0.50000000
  84  1 4 4    1850.00000000    8650.00000000       0.50000000
  85  1 4 4    1950.00000000    8650.00000000       0.50000000
  86  1 4 4    1550.00000000    8750.00000000       0.50000000
  87  1 4 4    1650.00000000    8750.00000000       0.50000000
  88  1 4 4    1750.00000000    8750.00000000       0.50000000
  89  1 4 4    1850.00000000    8750.00000000       0.50000000
  90  1 4 4    1950.00000000    8750.00000000       0.50000000
  91  1 4 4    1550.00000000    8850.00000000       0.50000000
  92  1 4 4    1650.00000000    8850.00000000       0.50000000
  93  1 4 4    1750.00000000    8850.00000000       0.50000000
  94  1 4 4    1850.00000000    8850.00000000       0.50000000
  95  1 4 4    1950.00000000    8850.00000000       0.50000000
  96  1 4 4    1550.00000000    8950.00000000       0.50000000
  97  1 4 4    1650.00000000    8950.00000000       0.50000000
  98  1 4 4    1750.00000000    8950.00000000       0.50000000
  99  1 4 4    1850.00000000    8950.00000000       0.50000000
  100  1 4 4    1950.00000000    8950.00000000       0.50000000
END packagedata

BEGIN releasetimes
   90000.00000000
   90020.00000000
   90040.00000000
   90060.00000000
   90080.00000000
   90100.00000000
   90120.00000000
   90140.00000000
   90160.00000000
   90180.00000000
END releasetimes

