# File generated by Flopy version 3.10.0.dev2 on 05/09/2025 at 15:29:09.
BEGIN options
  BUDGET  FILEOUT  mp7-p03-prt.cbb
  TRACKCSV  FILEOUT  mp7-p03-prt.trk.csv
  TRACK_RELEASE
  TRACK_TERMINATE
  TRACK_USERTIME
END options

BEGIN dimensions
  NTRACKTIMES  31
END dimensions

BEGIN tracktimes
   90000.00000000
   92000.00000000
   94000.00000000
   96000.00000000
   98000.00000000
  100000.00000000
  1.02000000E+05
  1.04000000E+05
  1.06000000E+05
  1.08000000E+05
  1.10000000E+05
  1.12000000E+05
  1.14000000E+05
  1.16000000E+05
  1.18000000E+05
  1.20000000E+05
  1.22000000E+05
  1.24000000E+05
  1.26000000E+05
  1.28000000E+05
  1.30000000E+05
  1.32000000E+05
  1.34000000E+05
  1.36000000E+05
  1.38000000E+05
  1.40000000E+05
  1.42000000E+05
  1.44000000E+05
  1.46000000E+05
  1.48000000E+05
  1.50000000E+05
END tracktimes

BEGIN period  1
  SAVE  BUDGET  ALL
END period  1

