# File generated by Flopy version 3.10.0.dev2 on 05/09/2025 at 15:29:09.
BEGIN options
END options

BEGIN packages
  DIS6  mp7-p03-prt.dis  dis
  MIP6  mp7-p03-prt.mip  mip
  PRP6  mp7-p03-prt_1.prp  prp1
  OC6  mp7-p03-prt.oc  oc
  FMI6  mp7-p03-prt.fmi  fmi
END packages

