# MPSIM package for MODPATH 7 generated by Flopy 3.9.3
modpath_GNW09463.mpnam
modpath_GNW09463.mplst
2 2 2 2 1 0
modpath_GNW09463.mpend
modpath_GNW09463.mppth
0
1
0
2
1
1
1
PG1
1
0.0
INTERNAL
1
1
1 0
         1        51        51             0.5             0.5             0.5               0         0
