# File generated by Flopy version 3.10.0.dev2 on 05/09/2025 at 15:28:35.
BEGIN options
  auxiliary  CONCENTRATION
END options

BEGIN dimensions
  MAXBOUND  1
END dimensions

BEGIN period  1
  1 1 1 1.00000000E-01 1.00000000E+00
END period  1

BEGIN period  2
  1 1 1 1.00000000E-01 0.00000000E+00
END period  2

