# File generated by Flopy version 3.10.0.dev2 on 05/09/2025 at 15:28:17.
BEGIN options
  TIME_UNITS  days
END options

BEGIN dimensions
  NPER  2
END dimensions

BEGIN perioddata
     730.00000000  1       1.00000000
   29270.00000000  1       1.00000000
END perioddata

