# File generated by Flopy version 3.10.0.dev2 on 05/09/2025 at 15:28:17.
BEGIN options
  SAVE_FLOWS
  SAVE_SPECIFIC_DISCHARGE
  SAVE_SATURATION
END options

BEGIN griddata
  icelltype
    CONSTANT  1
  k  LAYERED
    INTERNAL  FACTOR  1.0
           0.84758400       0.84758400       0.84758400       0.84758400       0.84758400       0.84758400       0.84758400       0.84758400       0.84758400       0.84758400       0.84758400       0.84758400       0.84758400       0.84758400       0.84758400       0.84758400       0.84758400       0.84758400       0.84758400       0.84758400       0.84758400       0.84758400       0.84758400       0.84758400       0.84758400       0.84758400       0.84758400       0.84758400       0.84758400       0.84758400       0.84758400       0.84758400       0.84758400       0.84758400       0.84758400       0.84758400       0.84758400       0.84758400       0.84758400       0.84758400       0.84758400       0.84758400       0.84758400       0.84758400       0.84758400       0.84758400       0.84758400       0.84758400       0.84758400       0.84758400       0.84758400       0.84758400       0.84758400       0.84758400       0.84758400       0.84758400       0.84758400       0.84758400       0.84758400       0.84758400       0.84758400       0.84758400       0.84758400       0.84758400       0.84758400       0.84758400       0.84758400       0.84758400       0.84758400       0.84758400       0.84758400       0.84758400       0.84758400       0.84758400       0.84758400       0.84758400       0.84758400       0.84758400       0.84758400       0.84758400       0.84758400       0.84758400       0.84758400       0.84758400       0.84758400       0.84758400       0.84758400       0.84758400       0.84758400       0.84758400       0.84758400       0.84758400       0.84758400       0.84758400       0.84758400       0.84758400       0.84758400       0.84758400       0.84758400       0.84758400       0.84758400       0.84758400       0.84758400       0.84758400       0.84758400       0.84758400       0.84758400       0.84758400       0.84758400       0.84758400       0.84758400       0.84758400       0.84758400       0.84758400       0.84758400       0.84758400       0.84758400       0.84758400       0.84758400       0.84758400       0.84758400       0.84758400       0.84758400       0.84758400       0.84758400       0.84758400       0.84758400       0.84758400       0.84758400       0.84758400       0.84758400       0.84758400       0.84758400       0.84758400       0.84758400       0.84758400       0.84758400       0.84758400       0.84758400       0.84758400       0.84758400       0.84758400       0.84758400       0.84758400       0.84758400       0.84758400       0.84758400       0.84758400       0.84758400       0.84758400       0.84758400       0.84758400       0.84758400       0.84758400       0.84758400       0.84758400       0.84758400       0.84758400       0.84758400       0.84758400       0.84758400       0.84758400       0.84758400       0.84758400       0.84758400       0.84758400       0.84758400       0.84758400       0.84758400       0.84758400       0.84758400       0.84758400       0.84758400       0.84758400       0.84758400       0.84758400       0.84758400       0.84758400       0.84758400       0.84758400       0.84758400       0.84758400       0.84758400       0.84758400       0.84758400       0.84758400       0.84758400       0.84758400       0.84758400       0.84758400       0.84758400       0.84758400       0.84758400       0.84758400       0.84758400       0.84758400       0.84758400       0.84758400       0.84758400       0.84758400       0.84758400       0.84758400       0.84758400       0.84758400       0.84758400       0.84758400       0.84758400       0.84758400       0.84758400       0.84758400       0.84758400       0.84758400       0.84758400       0.84758400       0.84758400       0.84758400       0.84758400       0.84758400       0.84758400       0.84758400       0.84758400       0.84758400       0.84758400       0.84758400       0.84758400       0.84758400       0.84758400       0.84758400       0.84758400       0.84758400       0.84758400       0.84758400       0.84758400       0.84758400       0.84758400       0.84758400       0.84758400       0.84758400       0.84758400       0.84758400       0.84758400       0.84758400       0.84758400       0.84758400       0.84758400       0.84758400       0.84758400       0.84758400       0.84758400       0.84758400       0.84758400       0.84758400       0.84758400       0.84758400       0.84758400       0.84758400       0.84758400       0.84758400       0.84758400       0.84758400       0.84758400       0.84758400       0.84758400       0.84758400       0.84758400       0.84758400       0.84758400       0.84758400       0.84758400       0.84758400       0.84758400       0.84758400       0.84758400       0.84758400       0.84758400       0.84758400       0.84758400       0.84758400       0.84758400       0.84758400       0.84758400       0.84758400       0.84758400       0.84758400       0.84758400       0.84758400       0.84758400       0.84758400       0.84758400       0.84758400       0.84758400       0.84758400       0.84758400       0.84758400       0.84758400       0.84758400       0.84758400       0.84758400       0.84758400       0.84758400       0.84758400       0.84758400       0.84758400       0.84758400       0.84758400       0.84758400       0.84758400       0.84758400       0.84758400       0.84758400       0.84758400       0.84758400       0.84758400       0.84758400       0.84758400       0.84758400       0.84758400       0.84758400       0.84758400       0.84758400       0.84758400       0.84758400       0.84758400       0.84758400       0.84758400       0.84758400       0.84758400       0.84758400       0.84758400       0.84758400       0.84758400       0.84758400       0.84758400       0.84758400       0.84758400       0.84758400       0.84758400       0.84758400       0.84758400       0.84758400       0.84758400       0.84758400       0.84758400       0.84758400       0.84758400       0.84758400       0.84758400       0.84758400       0.84758400       0.84758400       0.84758400       0.84758400       0.84758400       0.84758400       0.84758400       0.84758400       0.84758400       0.84758400       0.84758400       0.84758400       0.84758400       0.84758400       0.84758400       0.84758400       0.84758400       0.84758400       0.84758400       0.84758400       0.84758400       0.84758400       0.84758400       0.84758400       0.84758400       0.84758400       0.84758400       0.84758400       0.84758400       0.84758400       0.84758400       0.84758400       0.84758400       0.84758400       0.84758400       0.84758400       0.84758400       0.84758400       0.84758400       0.84758400       0.84758400       0.84758400       0.84758400       0.84758400       0.84758400       0.84758400       0.84758400       0.84758400       0.84758400       0.84758400       0.84758400       0.84758400
    INTERNAL  FACTOR  1.0
           0.84758400       0.84758400       0.84758400       0.84758400       0.84758400       0.84758400       0.84758400       0.84758400       0.84758400       0.84758400       0.84758400       0.84758400       0.84758400       0.84758400       0.84758400       0.84758400       0.84758400       0.84758400       0.84758400       0.84758400       0.84758400       0.84758400       0.84758400       0.84758400       0.84758400       0.84758400       0.84758400       0.84758400       0.84758400       0.84758400       0.84758400       0.84758400       0.84758400       0.84758400       0.84758400       0.84758400       0.84758400       0.84758400       0.84758400       0.84758400       0.84758400       0.84758400       0.84758400       0.84758400       0.84758400       0.84758400       0.84758400       0.84758400       0.84758400       0.84758400       0.84758400       0.84758400       0.84758400       0.84758400       0.84758400       0.84758400       0.84758400       0.84758400       0.84758400       0.84758400       0.84758400       0.84758400       0.84758400       0.84758400       0.84758400       0.84758400       0.84758400       0.84758400       0.84758400       0.84758400       0.84758400       0.84758400       0.84758400       0.84758400       0.84758400       0.84758400       0.84758400       0.84758400       0.84758400       0.84758400       0.84758400       0.84758400       0.84758400       0.84758400       0.84758400       0.84758400       0.84758400       0.84758400       0.84758400       0.84758400       0.84758400       0.84758400       0.84758400       0.84758400       0.84758400       0.84758400       0.84758400       0.84758400       0.84758400       0.84758400       0.84758400       0.84758400       0.84758400       0.84758400       0.84758400       0.84758400       0.84758400       0.84758400       0.84758400       0.84758400       0.84758400       0.84758400       0.84758400       0.84758400       0.84758400       0.84758400       0.84758400       0.84758400       0.84758400       0.84758400       0.84758400       0.84758400       0.84758400       0.84758400       0.84758400       0.84758400       0.84758400       0.84758400       0.84758400       0.84758400       0.84758400       0.84758400       0.84758400       0.84758400       0.84758400       0.84758400       0.84758400       0.84758400       0.84758400       0.84758400       0.84758400       0.84758400       0.84758400       0.84758400       0.84758400       0.84758400       0.84758400       0.84758400       0.84758400       0.84758400       0.84758400       0.84758400       0.84758400       0.84758400       0.84758400       0.84758400       0.84758400       0.84758400       0.84758400       0.84758400       0.84758400       0.84758400       0.84758400       0.84758400       0.84758400       0.84758400       0.84758400       0.84758400       0.84758400       0.84758400       0.84758400       0.84758400       0.84758400       0.84758400       0.84758400       0.84758400       0.84758400       0.84758400       0.84758400       0.84758400       0.84758400       0.84758400       0.84758400       0.84758400       0.84758400       0.84758400       0.84758400       0.84758400       0.84758400       0.84758400       0.84758400       0.84758400       0.84758400       0.84758400       0.84758400       0.84758400       0.84758400       0.84758400       0.84758400       0.84758400       0.84758400       0.84758400       0.84758400       0.84758400       0.84758400       0.84758400       0.84758400       0.84758400       0.84758400       0.84758400       0.84758400       0.84758400       0.84758400       0.84758400       0.84758400       0.84758400       0.84758400       0.84758400       0.84758400       0.84758400       0.84758400       0.84758400       0.84758400       0.84758400       0.84758400       0.84758400       0.84758400       0.84758400       0.84758400       0.84758400       0.84758400       0.84758400       0.84758400       0.84758400       0.84758400       0.84758400       0.84758400       0.84758400       0.84758400       0.84758400       0.84758400       0.84758400       0.84758400       0.84758400       0.84758400       0.84758400       0.84758400       0.84758400       0.84758400       0.84758400       0.84758400       0.84758400       0.84758400       0.84758400       0.84758400       0.84758400       0.84758400       0.84758400       0.84758400       0.84758400       0.84758400       0.84758400       0.84758400       0.84758400       0.84758400       0.84758400       0.84758400       0.84758400       0.84758400       0.84758400       0.84758400       0.84758400       0.84758400       0.84758400       0.84758400       0.84758400       0.84758400       0.84758400       0.84758400       0.84758400       0.84758400       0.84758400       0.84758400       0.84758400       0.84758400       0.84758400       0.84758400       0.84758400       0.84758400       0.84758400       0.84758400       0.84758400       0.84758400       0.84758400       0.84758400       0.84758400       0.84758400       0.84758400       0.84758400       0.84758400       0.84758400       0.84758400       0.84758400       0.84758400       0.84758400       0.84758400       0.84758400       0.84758400       0.84758400       0.84758400       0.84758400       0.84758400       0.84758400       0.84758400       0.84758400       0.84758400       0.84758400       0.84758400       0.84758400       0.84758400       0.84758400       0.84758400       0.84758400       0.84758400       0.84758400       0.84758400       0.84758400       0.84758400       0.84758400       0.84758400       0.84758400       0.84758400       0.84758400       0.84758400       0.84758400       0.84758400       0.84758400       0.84758400       0.84758400       0.84758400       0.84758400       0.84758400       0.84758400       0.84758400       0.84758400       0.84758400       0.84758400       0.84758400       0.84758400       0.84758400       0.84758400       0.84758400       0.84758400       0.84758400       0.84758400       0.84758400       0.84758400       0.84758400       0.84758400       0.84758400       0.84758400       0.84758400       0.84758400       0.84758400       0.84758400       0.84758400       0.84758400       0.84758400       0.84758400       0.84758400       0.84758400       0.84758400       0.84758400       0.84758400       0.84758400       0.84758400       0.84758400       0.84758400       0.84758400       0.84758400       0.84758400       0.84758400       0.84758400       0.84758400       0.84758400       0.84758400       0.84758400       0.84758400       0.84758400       0.84758400       0.84758400       0.84758400       0.84758400       0.84758400       0.84758400       0.84758400       0.84758400       0.84758400       0.84758400       0.84758400
    INTERNAL  FACTOR  1.0
           0.84758400       0.84758400       0.84758400       0.84758400       0.84758400       0.84758400       0.84758400       0.84758400       0.84758400       0.84758400       0.84758400       0.84758400       0.84758400       0.84758400       0.84758400       0.84758400       0.84758400       0.84758400       0.84758400       0.84758400       0.84758400       0.84758400       0.84758400       0.84758400       0.84758400       0.84758400       0.84758400       0.84758400       0.84758400       0.84758400       0.84758400       0.84758400       0.84758400       0.84758400       0.84758400       0.84758400       0.84758400       0.84758400       0.84758400       0.84758400       0.84758400       0.84758400       0.84758400       0.84758400       0.84758400       0.84758400       0.84758400       0.84758400       0.84758400       0.84758400       0.84758400       0.84758400       0.84758400       0.84758400       0.84758400       0.84758400       0.84758400       0.84758400       0.84758400       0.84758400       0.84758400       0.84758400       0.84758400       0.84758400       0.84758400       0.84758400       0.84758400       0.84758400       0.84758400       0.84758400       0.84758400       0.84758400       0.84758400       0.84758400       0.84758400       0.84758400       0.84758400       0.84758400       0.84758400       0.84758400       0.84758400       0.84758400       0.84758400       0.84758400       0.84758400       0.84758400       0.84758400       0.84758400       0.84758400       0.84758400       0.84758400       0.84758400       0.84758400       0.84758400       0.84758400       0.84758400       0.84758400       0.84758400       0.84758400       0.84758400       0.84758400       0.84758400       0.84758400       0.84758400       0.84758400       0.84758400       0.84758400       0.84758400       0.84758400       0.84758400       0.84758400       0.84758400       0.84758400       0.84758400       0.84758400       0.84758400       0.84758400       0.84758400       0.84758400       0.84758400       0.84758400       0.84758400       0.84758400       0.84758400       0.84758400       0.84758400       0.84758400       0.84758400       0.84758400       0.84758400       0.84758400       0.84758400       0.84758400       0.84758400       0.84758400       0.84758400       0.84758400       0.84758400       0.84758400       0.84758400       0.84758400       0.84758400       0.84758400       0.84758400       0.84758400       0.84758400       0.84758400       0.84758400       0.84758400       0.84758400       0.84758400       0.84758400       0.84758400       0.84758400       0.84758400       0.84758400       0.84758400       0.84758400       0.84758400       0.84758400       0.84758400       0.84758400       0.84758400       0.84758400       0.84758400       0.84758400       0.84758400       0.84758400       0.84758400       0.84758400       0.84758400       0.84758400       0.84758400       0.84758400       0.84758400       0.84758400       0.84758400       0.84758400       0.84758400       0.84758400       0.84758400       0.84758400       0.84758400       0.84758400       0.84758400       0.84758400       0.84758400       0.84758400       0.84758400       0.84758400       0.84758400       0.84758400       0.84758400       0.84758400       0.84758400       0.84758400       0.84758400       0.84758400       0.84758400       0.84758400       0.84758400       0.84758400       0.84758400       0.84758400       0.84758400       0.84758400       0.84758400       0.84758400       0.84758400       0.84758400       0.84758400       0.84758400       0.84758400       0.84758400       0.84758400       0.84758400       0.84758400       0.84758400       0.84758400       0.84758400       0.84758400       0.84758400       0.84758400       0.84758400       0.84758400       0.84758400       0.84758400       0.84758400       0.84758400       0.84758400       0.84758400       0.84758400       0.84758400       0.84758400       0.84758400       0.84758400       0.84758400       0.84758400       0.84758400       0.84758400       0.84758400       0.84758400       0.84758400       0.84758400       0.84758400       0.84758400       0.84758400       0.84758400       0.84758400       0.84758400       0.84758400       0.84758400       0.84758400       0.84758400       0.84758400       0.84758400       0.84758400       0.84758400       0.84758400       0.84758400       0.84758400       0.84758400       0.84758400       0.84758400       0.84758400       0.84758400       0.84758400       0.84758400       0.84758400       0.84758400       0.84758400       0.84758400       0.84758400       0.84758400       0.84758400       0.84758400       0.84758400       0.84758400       0.84758400       0.84758400       0.84758400       0.84758400       0.84758400       0.84758400       0.84758400       0.84758400       0.84758400       0.84758400       0.84758400       0.84758400       0.84758400       0.84758400       0.84758400       0.84758400       0.84758400       0.84758400       0.84758400       0.84758400       0.84758400       0.84758400       0.84758400       0.84758400       0.84758400       0.84758400       0.84758400       0.84758400       0.84758400       0.84758400       0.84758400       0.84758400       0.84758400       0.84758400       0.84758400       0.84758400       0.84758400       0.84758400       0.84758400       0.84758400       0.84758400       0.84758400       0.84758400       0.84758400       0.84758400       0.84758400       0.84758400       0.84758400       0.84758400       0.84758400       0.84758400       0.84758400       0.84758400       0.84758400       0.84758400       0.84758400       0.84758400       0.84758400       0.84758400       0.84758400       0.84758400       0.84758400       0.84758400       0.84758400       0.84758400       0.84758400       0.84758400       0.84758400       0.84758400       0.84758400       0.84758400       0.84758400       0.84758400       0.84758400       0.84758400       0.84758400       0.84758400       0.84758400       0.84758400       0.84758400       0.84758400       0.84758400       0.84758400       0.84758400       0.84758400       0.84758400       0.84758400       0.84758400       0.84758400       0.84758400       0.84758400       0.84758400       0.84758400       0.84758400       0.84758400       0.84758400       0.84758400       0.84758400       0.84758400       0.84758400       0.84758400       0.84758400       0.84758400       0.84758400       0.84758400       0.84758400       0.84758400       0.84758400       0.84758400       0.84758400       0.84758400       0.84758400       0.84758400       0.84758400       0.84758400       0.84758400       0.84758400       0.84758400       0.84758400       0.84758400       0.84758400       0.84758400
    INTERNAL  FACTOR  1.0
           0.84758400       0.84758400       0.84758400       0.84758400       0.84758400       0.84758400       0.84758400       0.84758400       0.84758400       0.84758400       0.84758400       0.84758400       0.84758400       0.84758400       0.84758400       0.84758400       0.84758400       0.84758400       0.84758400       0.84758400       0.84758400       0.84758400       0.84758400       0.84758400       0.84758400       0.84758400       0.84758400       0.84758400       0.84758400       0.84758400       0.84758400       0.84758400       0.84758400       0.84758400       0.84758400       0.84758400       0.84758400       0.84758400       0.84758400       0.84758400       0.84758400       0.84758400       0.84758400       0.84758400       0.84758400       0.84758400       0.84758400       0.84758400       0.84758400       0.84758400       0.84758400       0.84758400       0.84758400       0.84758400       0.84758400       0.84758400       0.84758400       0.84758400       0.84758400       0.84758400       0.84758400       0.84758400       0.84758400       0.84758400       0.84758400       0.84758400       0.84758400       0.84758400       0.84758400       0.84758400       0.84758400       0.84758400       0.84758400       0.84758400       0.84758400       0.84758400       0.84758400       0.84758400       0.84758400       0.84758400       0.84758400       0.84758400       0.84758400       0.84758400       0.84758400       0.84758400       0.84758400       0.84758400       0.84758400       0.84758400       0.84758400       0.84758400       0.84758400       0.84758400       0.84758400       0.84758400       0.84758400       0.84758400       0.84758400       0.84758400       0.84758400       0.84758400       0.84758400       0.84758400       0.84758400       0.84758400       0.84758400       0.84758400       0.84758400       0.84758400       0.84758400       0.84758400       0.84758400       0.84758400       0.84758400       0.84758400       0.84758400       0.84758400       0.84758400       0.84758400       0.84758400       0.84758400       0.84758400       0.84758400       0.84758400       0.84758400       0.84758400       0.84758400       0.84758400       0.84758400       0.84758400       0.84758400       0.84758400       0.84758400       0.84758400       0.84758400       0.84758400       0.84758400       0.84758400       0.84758400       0.84758400       0.84758400       0.84758400       0.84758400       0.84758400       0.84758400       0.84758400       0.84758400       0.84758400       0.84758400       0.84758400       0.84758400       0.84758400       0.84758400       0.84758400       0.84758400       0.84758400       0.84758400       0.84758400       0.84758400       0.84758400       0.84758400       0.84758400       0.84758400       0.84758400       0.84758400       0.84758400       0.84758400       0.84758400       0.84758400       0.84758400       0.84758400       0.84758400       0.84758400       0.84758400       0.84758400       0.84758400       0.84758400       0.84758400       0.84758400       0.84758400       0.84758400       0.84758400       0.84758400       0.84758400       0.84758400       0.84758400       0.84758400       0.84758400       0.84758400       0.84758400       0.84758400       0.84758400       0.84758400       0.84758400       0.84758400       0.84758400       0.84758400       0.84758400       0.84758400       0.84758400       0.84758400       0.84758400       0.84758400       0.84758400       0.84758400       0.84758400       0.84758400       0.84758400       0.84758400       0.84758400       0.84758400       0.84758400       0.84758400       0.84758400       0.84758400       0.84758400       0.84758400       0.84758400       0.84758400       0.84758400       0.84758400       0.84758400       0.84758400       0.84758400       0.84758400       0.84758400       0.84758400       0.84758400       0.84758400       0.84758400       0.84758400       0.84758400       0.84758400       0.84758400       0.84758400       0.84758400       0.84758400       0.84758400       0.84758400       0.84758400       0.84758400       0.84758400       0.84758400       0.84758400       0.84758400       0.84758400       0.84758400       0.84758400       0.84758400       0.84758400       0.84758400       0.84758400       0.84758400       0.84758400       0.84758400       0.84758400       0.84758400       0.84758400       0.84758400       0.84758400       0.84758400       0.84758400       0.84758400       0.84758400       0.84758400       0.84758400       0.84758400       0.84758400       0.84758400       0.84758400       0.84758400       0.84758400       0.84758400       0.84758400       0.84758400       0.84758400       0.84758400       0.84758400       0.84758400       0.84758400       0.84758400       0.84758400       0.84758400       0.84758400       0.84758400       0.84758400       0.84758400       0.84758400       0.84758400       0.84758400       0.84758400       0.84758400       0.84758400       0.84758400       0.84758400       0.84758400       0.84758400       0.84758400       0.84758400       0.84758400       0.84758400       0.84758400       0.84758400       0.84758400       0.84758400       0.84758400       0.84758400       0.84758400       0.84758400       0.84758400       0.84758400       0.84758400       0.84758400       0.84758400       0.84758400       0.84758400       0.84758400       0.84758400       0.84758400       0.84758400       0.84758400       0.84758400       0.84758400       0.84758400       0.84758400       0.84758400       0.84758400       0.84758400       0.84758400       0.84758400       0.84758400       0.84758400       0.84758400       0.84758400       0.84758400       0.84758400       0.84758400       0.84758400       0.84758400       0.84758400       0.84758400       0.84758400       0.84758400       0.84758400       0.84758400       0.84758400       0.84758400       0.84758400       0.84758400       0.84758400       0.84758400       0.84758400       0.84758400       0.84758400       0.84758400       0.84758400       0.84758400       0.84758400       0.84758400       0.84758400       0.84758400       0.84758400       0.84758400       0.84758400       0.84758400       0.84758400       0.84758400       0.84758400       0.84758400       0.84758400       0.84758400       0.84758400       0.84758400       0.84758400       0.84758400       0.84758400       0.84758400       0.84758400       0.84758400       0.84758400       0.84758400       0.84758400       0.84758400       0.84758400       0.84758400       0.84758400       0.84758400       0.84758400       0.84758400       0.84758400       0.84758400       0.84758400       0.84758400       0.84758400       0.84758400       0.84758400       0.84758400       0.84758400       0.84758400
    INTERNAL  FACTOR  1.0