# File generated by Flopy version 3.10.0.dev2 on 05/09/2025 at 15:28:17.
BEGIN options
  PRINT_INPUT
  PRINT_FLOWS
END options

BEGIN dimensions
  MAXBOUND  36
END dimensions

BEGIN period  1
  49 1 1 8.00000000E+02
  50 1 1 8.00000000E+02
  51 1 1 8.00000000E+02
  52 1 1 8.00000000E+02
  53 1 1 8.00000000E+02
  54 1 1 8.00000000E+02
  55 1 1 8.00000000E+02
  56 1 1 8.00000000E+02
  57 1 1 8.00000000E+02
  58 1 1 8.00000000E+02
  59 1 1 8.00000000E+02
  60 1 1 8.00000000E+02
  61 1 1 8.00000000E+02
  62 1 1 8.00000000E+02
  63 1 1 8.00000000E+02
  64 1 1 8.00000000E+02
  65 1 1 8.00000000E+02
  66 1 1 8.00000000E+02
  67 1 1 8.00000000E+02
  68 1 1 8.00000000E+02
  69 1 1 8.00000000E+02
  70 1 1 8.00000000E+02
  71 1 1 8.00000000E+02
  72 1 1 8.00000000E+02
  73 1 1 8.00000000E+02
  74 1 1 8.00000000E+02
  75 1 1 8.00000000E+02
  76 1 1 8.00000000E+02
  77 1 1 8.00000000E+02
  78 1 1 8.00000000E+02
  79 1 1 8.00000000E+02
  80 1 1 8.00000000E+02
  77 1 400 1.00000000E+02
  78 1 400 1.00000000E+02
  79 1 400 1.00000000E+02
  80 1 400 1.00000000E+02
END period  1

