# File generated by Flopy version 3.10.0.dev2 on 05/09/2025 at 15:28:27.
BEGIN options
END options

BEGIN dimensions
  MAXBOUND  396
END dimensions

BEGIN period  1
  1 1 1 9.71140453E+01
  1 1 100 -8.90954544E-01
  1 2 1 9.81039948E+01
  1 2 100 9.89949494E-02
  1 3 1 9.90939443E+01
  1 3 100 1.08894444E+00
  1 4 1 1.00083894E+02
  1 4 100 2.07889394E+00
  1 5 1 1.01073843E+02
  1 5 100 3.06884343E+00
  1 6 1 1.02063793E+02
  1 6 100 4.05879292E+00
  1 7 1 1.03053742E+02
  1 7 100 5.04874242E+00
  1 8 1 1.04043692E+02
  1 8 100 6.03869191E+00
  1 9 1 1.05033641E+02
  1 9 100 7.02864140E+00
  1 10 1 1.06023591E+02
  1 10 100 8.01859090E+00
  1 11 1 1.07013540E+02
  1 11 100 9.00854039E+00
  1 12 1 1.08003490E+02
  1 12 100 9.99848989E+00
  1 13 1 1.08993439E+02
  1 13 100 1.09884394E+01
  1 14 1 1.09983389E+02
  1 14 100 1.19783889E+01
  1 15 1 1.10973338E+02
  1 15 100 1.29683384E+01
  1 16 1 1.11963288E+02
  1 16 100 1.39582879E+01
  1 17 1 1.12953237E+02
  1 17 100 1.49482374E+01
  1 18 1 1.13943187E+02
  1 18 100 1.59381868E+01
  1 19 1 1.14933136E+02
  1 19 100 1.69281363E+01
  1 20 1 1.15923086E+02
  1 20 100 1.79180858E+01
  1 21 1 1.16913035E+02
  1 21 100 1.89080353E+01
  1 22 1 1.17902985E+02
  1 22 100 1.98979848E+01
  1 23 1 1.18892934E+02
  1 23 100 2.08879343E+01
  1 24 1 1.19882884E+02
  1 24 100 2.18778838E+01
  1 25 1 1.20872833E+02
  1 25 100 2.28678333E+01
  1 26 1 1.21862783E+02
  1 26 100 2.38577828E+01
  1 27 1 1.22852732E+02
  1 27 100 2.48477323E+01
  1 28 1 1.23842682E+02
  1 28 100 2.58376818E+01
  1 29 1 1.24832631E+02
  1 29 100 2.68276313E+01
  1 30 1 1.25822581E+02
  1 30 100 2.78175808E+01
  1 31 1 1.26812530E+02
  1 31 100 2.88075303E+01
  1 32 1 1.27802480E+02
  1 32 100 2.97974798E+01
  1 33 1 1.28792429E+02
  1 33 100 3.07874293E+01
  1 34 1 1.29782379E+02
  1 34 100 3.17773787E+01
  1 35 1 1.30772328E+02
  1 35 100 3.27673282E+01
  1 36 1 1.31762278E+02
  1 36 100 3.37572777E+01
  1 37 1 1.32752227E+02
  1 37 100 3.47472272E+01
  1 38 1 1.33742177E+02
  1 38 100 3.57371767E+01
  1 39 1 1.34732126E+02
  1 39 100 3.67271262E+01
  1 40 1 1.35722076E+02
  1 40 100 3.77170757E+01
  1 41 1 1.36712025E+02
  1 41 100 3.87070252E+01
  1 42 1 1.37701975E+02
  1 42 100 3.96969747E+01
  1 43 1 1.38691924E+02
  1 43 100 4.06869242E+01
  1 44 1 1.39681874E+02
  1 44 100 4.16768737E+01
  1 45 1 1.40671823E+02
  1 45 100 4.26668232E+01
  1 46 1 1.41661773E+02
  1 46 100 4.36567727E+01
  1 47 1 1.42651722E+02
  1 47 100 4.46467222E+01
  1 48 1 1.43641672E+02
  1 48 100 4.56366717E+01
  1 49 1 1.44631621E+02
  1 49 100 4.66266212E+01
  1 50 1 1.45621571E+02
  1 50 100 4.76165706E+01
  1 51 1 1.46611520E+02
  1 51 100 4.86065201E+01
  1 52 1 1.47601470E+02
  1 52 100 4.95964696E+01
  1 53 1 1.48591419E+02
  1 53 100 5.05864191E+01
  1 54 1 1.49581368E+02
  1 54 100 5.15763686E+01
  1 55 1 1.50571318E+02
  1 55 100 5.25663181E+01
  1 56 1 1.51561267E+02
  1 56 100 5.35562676E+01
  1 57 1 1.52551217E+02
  1 57 100 5.45462171E+01
  1 58 1 1.53541166E+02
  1 58 100 5.55361666E+01
  1 59 1 1.54531116E+02
  1 59 100 5.65261161E+01
  1 60 1 1.55521065E+02
  1 60 100 5.75160656E+01
  1 61 1 1.56511015E+02
  1 61 100 5.85060151E+01
  1 62 1 1.57500964E+02
  1 62 100 5.94959646E+01
  1 63 1 1.58490914E+02
  1 63 100 6.04859141E+01
  1 64 1 1.59480863E+02
  1 64 100 6.14758636E+01
  1 65 1 1.60470813E+02
  1 65 100 6.24658131E+01
  1 66 1 1.61460762E+02
  1 66 100 6.34557625E+01
  1 67 1 1.62450712E+02
  1 67 100 6.44457120E+01
  1 68 1 1.63440661E+02
  1 68 100 6.54356615E+01
  1 69 1 1.64430611E+02
  1 69 100 6.64256110E+01
  1 70 1 1.65420560E+02
  1 70 100 6.74155605E+01
  1 71 1 1.66410510E+02
  1 71 100 6.84055100E+01
  1 72 1 1.67400459E+02
  1 72 100 6.93954595E+01
  1 73 1 1.68390409E+02
  1 73 100 7.03854090E+01
  1 74 1 1.69380358E+02
  1 74 100 7.13753585E+01
  1 75 1 1.70370308E+02
  1 75 100 7.23653080E+01
  1 76 1 1.71360257E+02
  1 76 100 7.33552575E+01
  1 77 1 1.72350207E+02
  1 77 100 7.43452070E+01
  1 78 1 1.73340156E+02
  1 78 100 7.53351565E+01
  1 79 1 1.74330106E+02
  1 79 100 7.63251060E+01
  1 80 1 1.75320055E+02
  1 80 100 7.73150555E+01
  1 81 1 1.76310005E+02
  1 81 100 7.83050049E+01
  1 82 1 1.77299954E+02
  1 82 100 7.92949544E+01
  1 83 1 1.78289904E+02
  1 83 100 8.02849039E+01
  1 84 1 1.79279853E+02
  1 84 100 8.12748534E+01
  1 85 1 1.80269803E+02
  1 85 100 8.22648029E+01
  1 86 1 1.81259752E+02
  1 86 100 8.32547524E+01
  1 87 1 1.82249702E+02
  1 87 100 8.42447019E+01
  1 88 1 1.83239651E+02
  1 88 100 8.52346514E+01
  1 89 1 1.84229601E+02
  1 89 100 8.62246009E+01
  1 90 1 1.85219550E+02
  1 90 100 8.72145504E+01
  1 91 1 1.86209500E+02
  1 91 100 8.82044999E+01
  1 92 1 1.87199449E+02
  1 92 100 8.91944494E+01
  1 93 1 1.88189399E+02
  1 93 100 9.01843989E+01
  1 94 1 1.89179348E+02
  1 94 100 9.11743484E+01
  1 95 1 1.90169298E+02
  1 95 100 9.21642979E+01
  1 96 1 1.91159247E+02
  1 96 100 9.31542474E+01
  1 97 1 1.92149197E+02
  1 97 100 9.41441968E+01
  1 98 1 1.93139146E+02
  1 98 100 9.51341463E+01
  1 99 1 1.94129096E+02
  1 99 100 9.61240958E+01
  1 100 1 1.95119045E+02
  1 100 100 9.71140453E+01
  1 1 2 9.61240958E+01
  1 100 2 1.94129096E+02
  1 1 3 9.51341463E+01
  1 100 3 1.93139146E+02
  1 1 4 9.41441968E+01
  1 100 4 1.92149197E+02
  1 1 5 9.31542474E+01
  1 100 5 1.91159247E+02
  1 1 6 9.21642979E+01
  1 100 6 1.90169298E+02
  1 1 7 9.11743484E+01
  1 100 7 1.89179348E+02
  1 1 8 9.01843989E+01
  1 100 8 1.88189399E+02
  1 1 9 8.91944494E+01
  1 100 9 1.87199449E+02
  1 1 10 8.82044999E+01
  1 100 10 1.86209500E+02
  1 1 11 8.72145504E+01
  1 100 11 1.85219550E+02
  1 1 12 8.62246009E+01
  1 100 12 1.84229601E+02
  1 1 13 8.52346514E+01
  1 100 13 1.83239651E+02
  1 1 14 8.42447019E+01
  1 100 14 1.82249702E+02
  1 1 15 8.32547524E+01
  1 100 15 1.81259752E+02
  1 1 16 8.22648029E+01
  1 100 16 1.80269803E+02
  1 1 17 8.12748534E+01
  1 100 17 1.79279853E+02
  1 1 18 8.02849039E+01
  1 100 18 1.78289904E+02
  1 1 19 7.92949544E+01
  1 100 19 1.77299954E+02
  1 1 20 7.83050049E+01
  1 100 20 1.76310005E+02
  1 1 21 7.73150555E+01
  1 100 21 1.75320055E+02
  1 1 22 7.63251060E+01
  1 100 22 1.74330106E+02
  1 1 23 7.53351565E+01
  1 100 23 1.73340156E+02
  1 1 24 7.43452070E+01
  1 100 24 1.72350207E+02
  1 1 25 7.33552575E+01
  1 100 25 1.71360257E+02
  1 1 26 7.23653080E+01
  1 100 26 1.70370308E+02
  1 1 27 7.13753585E+01
  1 100 27 1.69380358E+02
  1 1 28 7.03854090E+01
  1 100 28 1.68390409E+02
  1 1 29 6.93954595E+01
  1 100 29 1.67400459E+02
  1 1 30 6.84055100E+01
  1 100 30 1.66410510E+02
  1 1 31 6.74155605E+01
  1 100 31 1.65420560E+02
  1 1 32 6.64256110E+01
  1 100 32 1.64430611E+02
  1 1 33 6.54356615E+01
  1 100 33 1.63440661E+02
  1 1 34 6.44457120E+01
  1 100 34 1.62450712E+02
  1 1 35 6.34557625E+01
  1 100 35 1.61460762E+02
  1 1 36 6.24658131E+01
  1 100 36 1.60470813E+02
  1 1 37 6.14758636E+01
  1 100 37 1.59480863E+02
  1 1 38 6.04859141E+01
  1 100 38 1.58490914E+02
  1 1 39 5.94959646E+01
  1 100 39 1.57500964E+02
  1 1 40 5.85060151E+01
  1 100 40 1.56511015E+02
  1 1 41 5.75160656E+01
  1 100 41 1.55521065E+02
  1 1 42 5.65261161E+01
  1 100 42 1.54531116E+02
  1 1 43 5.55361666E+01
  1 100 43 1.53541166E+02
  1 1 44 5.45462171E+01
  1 100 44 1.52551217E+02
  1 1 45 5.35562676E+01
  1 100 45 1.51561267E+02
  1 1 46 5.25663181E+01
  1 100 46 1.50571318E+02
  1 1 47 5.15763686E+01
  1 100 47 1.49581368E+02
  1 1 48 5.05864191E+01
  1 100 48 1.48591419E+02
  1 1 49 4.95964696E+01
  1 100 49 1.47601470E+02
  1 1 50 4.86065201E+01
  1 100 50 1.46611520E+02
  1 1 51 4.76165706E+01
  1 100 51 1.45621571E+02
  1 1 52 4.66266212E+01
  1 100 52 1.44631621E+02
  1 1 53 4.56366717E+01
  1 100 53 1.43641672E+02
  1 1 54 4.46467222E+01
  1 100 54 1.42651722E+02
  1 1 55 4.36567727E+01
  1 100 55 1.41661773E+02
  1 1 56 4.26668232E+01
  1 100 56 1.40671823E+02
  1 1 57 4.16768737E+01
  1 100 57 1.39681874E+02
  1 1 58 4.06869242E+01
  1 100 58 1.38691924E+02
  1 1 59 3.96969747E+01
  1 100 59 1.37701975E+02
  1 1 60 3.87070252E+01
  1 100 60 1.36712025E+02
  1 1 61 3.77170757E+01
  1 100 61 1.35722076E+02
  1 1 62 3.67271262E+01
  1 100 62 1.34732126E+02
  1 1 63 3.57371767E+01
  1 100 63 1.33742177E+02
  1 1 64 3.47472272E+01
  1 100 64 1.32752227E+02
  1 1 65 3.37572777E+01
  1 100 65 1.31762278E+02
  1 1 66 3.27673282E+01
  1 100 66 1.30772328E+02
  1 1 67 3.17773787E+01
  1 100 67 1.29782379E+02
  1 1 68 3.07874293E+01
  1 100 68 1.28792429E+02
  1 1 69 2.97974798E+01
  1 100 69 1.27802480E+02
  1 1 70 2.88075303E+01
  1 100 70 1.26812530E+02
  1 1 71 2.78175808E+01
  1 100 71 1.25822581E+02
  1 1 72 2.68276313E+01
  1 100 72 1.24832631E+02
  1 1 73 2.58376818E+01
  1 100 73 1.23842682E+02
  1 1 74 2.48477323E+01
  1 100 74 1.22852732E+02
  1 1 75 2.38577828E+01
  1 100 75 1.21862783E+02
  1 1 76 2.28678333E+01
  1 100 76 1.20872833E+02
  1 1 77 2.18778838E+01
  1 100 77 1.19882884E+02
  1 1 78 2.08879343E+01
  1 100 78 1.18892934E+02
  1 1 79 1.98979848E+01
  1 100 79 1.17902985E+02
  1 1 80 1.89080353E+01
  1 100 80 1.16913035E+02
  1 1 81 1.79180858E+01
  1 100 81 1.15923086E+02
  1 1 82 1.69281363E+01
  1 100 82 1.14933136E+02
  1 1 83 1.59381868E+01
  1 100 83 1.13943187E+02
  1 1 84 1.49482374E+01
  1 100 84 1.12953237E+02
  1 1 85 1.39582879E+01
  1 100 85 1.11963288E+02
  1 1 86 1.29683384E+01
  1 100 86 1.10973338E+02
  1 1 87 1.19783889E+01
  1 100 87 1.09983389E+02
  1 1 88 1.09884394E+01
  1 100 88 1.08993439E+02
  1 1 89 9.99848989E+00
  1 100 89 1.08003490E+02
  1 1 90 9.00854039E+00
  1 100 90 1.07013540E+02
  1 1 91 8.01859090E+00
  1 100 91 1.06023591E+02
  1 1 92 7.02864140E+00
  1 100 92 1.05033641E+02
  1 1 93 6.03869191E+00
  1 100 93 1.04043692E+02
  1 1 94 5.04874242E+00
  1 100 94 1.03053742E+02
  1 1 95 4.05879292E+00
  1 100 95 1.02063793E+02
  1 1 96 3.06884343E+00
  1 100 96 1.01073843E+02
  1 1 97 2.07889394E+00
  1 100 97 1.00083894E+02
  1 1 98 1.08894444E+00
  1 100 98 9.90939443E+01
  1 1 99 9.89949494E-02
  1 100 99 9.81039948E+01
END period  1

