# File generated by Flopy version 3.10.0.dev2 on 05/09/2025 at 15:27:44.
BEGIN options
  auxiliary  TEMPERATURE
END options

BEGIN dimensions
  MAXBOUND  12
END dimensions

BEGIN period  1
  1 18792 1.65530000E+01 0.00000000E+00
  1 18793 1.65530000E+01 0.00000000E+00
  1 18794 1.65530000E+01 0.00000000E+00
  1 18795 1.65530000E+01 0.00000000E+00
  1 18796 1.65530000E+01 0.00000000E+00
  1 18797 1.65530000E+01 0.00000000E+00
  1 18798 1.65530000E+01 0.00000000E+00
  1 18799 1.65530000E+01 0.00000000E+00
  1 18800 1.65530000E+01 0.00000000E+00
  1 18801 1.65530000E+01 0.00000000E+00
  1 18802 1.65530000E+01 0.00000000E+00
  1 18803 1.65530000E+01 0.00000000E+00
END period  1

