# File generated by Flopy version 3.10.0.dev2 on 05/09/2025 at 15:27:44.
BEGIN options
  auxiliary  TEMPERATURE
END options

BEGIN dimensions
  MAXBOUND  12
END dimensions

BEGIN period  1
  1 18804 1.00100000E+00 0.00000000E+00
  1 18805 1.00100000E+00 0.00000000E+00
  1 18806 1.00100000E+00 0.00000000E+00
  1 18807 1.00100000E+00 0.00000000E+00
  1 18808 1.00100000E+00 0.00000000E+00
  1 18809 1.00100000E+00 0.00000000E+00
  1 18810 1.00100000E+00 0.00000000E+00
  1 18811 1.00100000E+00 0.00000000E+00
  1 18812 1.00100000E+00 0.00000000E+00
  1 18813 1.00100000E+00 0.00000000E+00
  1 18814 1.00100000E+00 0.00000000E+00
  1 18815 1.00100000E+00 0.00000000E+00
END period  1

