# File generated by Flopy version 3.10.0.dev2 on 05/09/2025 at 15:27:43.
BEGIN options
END options

BEGIN timing
  TDIS6  ex-gwe-geotherm.tdis
END timing

BEGIN models
  gwf6  gwf-geotherm.nam  gwf-geotherm
END models

BEGIN exchanges
END exchanges

BEGIN solutiongroup  1
  ims6  ex-gwe-geotherm.ims  gwf-geotherm
END solutiongroup  1

