# File generated by Flopy version 3.10.0.dev2 on 05/09/2025 at 15:27:50.
BEGIN options
  XT3D
  SAVE_SPECIFIC_DISCHARGE
END options

BEGIN griddata
  icelltype
    CONSTANT  0
  k
    CONSTANT       1.00000000
  k22
    CONSTANT       0.01000000
  angle1
    CONSTANT      25.00000000
END griddata

