# File generated by Flopy version 3.10.0.dev2 on 05/09/2025 at 15:27:37.
BEGIN options
  SAVE_FLOWS
  NEWTON
END options

BEGIN packages
  DIS6  ex-gwf-csub-p01.dis  dis
  OBS6  ex-gwf-csub-p01.obs  obs_0
  IC6  ex-gwf-csub-p01.ic  ic
  NPF6  ex-gwf-csub-p01.npf  npf
  STO6  ex-gwf-csub-p01.sto  sto
  CSUB6  ex-gwf-csub-p01.csub  csub
  OC6  ex-gwf-csub-p01.oc  oc
END packages

