# File generated by Flopy version 3.10.0.dev2 on 05/09/2025 at 15:27:37.
BEGIN options
  TIME_UNITS  seconds
END options

BEGIN dimensions
  NPER  2
END dimensions

BEGIN perioddata
       0.50000000  1       1.00000000
      58.50000000  117       1.00000000
END perioddata

