# File generated by Flopy version 3.10.0.dev2 on 05/09/2025 at 15:27:35.
BEGIN options
  REWET  wetfct       1.00000000  iwetit  1  ihdwet  0
  SAVE_SPECIFIC_DISCHARGE
END options

BEGIN griddata
  icelltype
    CONSTANT  1
  k
    CONSTANT       1.00000000
  wetdry
    CONSTANT       2.00000000
END griddata

