# File generated by Flopy version 3.10.0.dev2 on 05/09/2025 at 15:27:35.
BEGIN options
  PRINT_OPTION  all
END options

BEGIN nonlinear
  OUTER_DVCLOSE  1.00000000E-09
  OUTER_MAXIMUM  500
END nonlinear

BEGIN linear
  INNER_MAXIMUM  500
  INNER_DVCLOSE  1.00000000E-09
  inner_rclose  1.00000000E-06
  LINEAR_ACCELERATION  cg
END linear

