# File generated by Flopy version 3.10.0.dev2 on 05/09/2025 at 15:28:38.
BEGIN options
  PRINT_FLOWS
  BUDGET  FILEOUT  flow.mvr.bud
END options

BEGIN dimensions
  MAXMVR  2
  MAXPACKAGES  2
END dimensions

BEGIN packages
  SFR-1
  LAK-1
END packages

BEGIN period  1
  SFR-1  6  LAK-1  1  FACTOR       1.00000000
  LAK-1  1  SFR-1  7  FACTOR       1.00000000
END period  1

