# File generated by Flopy version 3.10.0.dev2 on 05/09/2025 at 15:28:38.
BEGIN options
END options

BEGIN dimensions
  MAXBOUND  322
END dimensions

BEGIN period  1
  1 1 4 5.00000000E+01
  1 1 5 5.00000000E+01
  1 1 6 5.00000000E+01
  1 1 7 5.00000000E+01
  1 1 8 5.00000000E+01
  1 1 9 5.00000000E+01
  1 1 10 5.00000000E+01
  1 1 11 5.00000000E+01
  1 1 12 5.01000000E+01
  1 1 13 5.01500000E+01
  1 1 14 5.01500000E+01
  1 1 15 5.01000000E+01
  1 1 16 5.00000000E+01
  1 1 17 5.00000000E+01
  1 1 18 5.00000000E+01
  1 1 19 5.00000000E+01
  1 1 20 5.00000000E+01
  1 1 21 5.00000000E+01
  1 33 1 2.80000000E+01
  1 33 2 2.80000000E+01
  1 33 3 2.80000000E+01
  1 33 4 2.80000000E+01
  1 33 5 2.80000000E+01
  1 33 6 2.80000000E+01
  1 33 7 2.80000000E+01
  1 34 8 2.80000000E+01
  1 34 9 2.80000000E+01
  1 34 10 2.80000000E+01
  1 34 11 2.80000000E+01
  1 34 12 2.80000000E+01
  1 34 13 2.80000000E+01
  1 35 14 2.80000000E+01
  1 35 16 2.80000000E+01
  1 35 17 2.80000000E+01
  1 35 18 2.80000000E+01
  1 35 19 2.80000000E+01
  1 35 20 2.80000000E+01
  1 36 21 2.80000000E+01
  1 36 22 2.80000000E+01
  1 36 23 2.80000000E+01
  2 1 4 5.00000000E+01
  2 1 5 5.00000000E+01
  2 1 6 5.00000000E+01
  2 1 7 5.00000000E+01
  2 1 8 5.00000000E+01
  2 1 9 5.00000000E+01
  2 1 10 5.00000000E+01
  2 1 11 5.00000000E+01
  2 1 12 5.01000000E+01
  2 1 13 5.01500000E+01
  2 1 14 5.01500000E+01
  2 1 15 5.01000000E+01
  2 1 16 5.00000000E+01
  2 1 17 5.00000000E+01
  2 1 18 5.00000000E+01
  2 1 19 5.00000000E+01
  2 1 20 5.00000000E+01
  2 1 21 5.00000000E+01
  2 33 1 2.80000000E+01
  2 33 2 2.80000000E+01
  2 33 3 2.80000000E+01
  2 33 4 2.80000000E+01
  2 33 5 2.80000000E+01
  2 33 6 2.80000000E+01
  2 33 7 2.80000000E+01
  2 34 8 2.80000000E+01
  2 34 9 2.80000000E+01
  2 34 10 2.80000000E+01
  2 34 11 2.80000000E+01
  2 34 12 2.80000000E+01
  2 34 13 2.80000000E+01
  2 35 14 2.80000000E+01
  2 35 16 2.80000000E+01
  2 35 17 2.80000000E+01
  2 35 18 2.80000000E+01
  2 35 19 2.80000000E+01
  2 35 20 2.80000000E+01
  2 36 21 2.80000000E+01
  2 36 22 2.80000000E+01
  2 36 23 2.80000000E+01
  3 1 4 5.00000000E+01
  3 1 5 5.00000000E+01
  3 1 6 5.00000000E+01
  3 1 7 5.00000000E+01
  3 1 8 5.00000000E+01
  3 1 9 5.00000000E+01
  3 1 10 5.00000000E+01
  3 1 11 5.00000000E+01
  3 1 16 5.00000000E+01
  3 1 17 5.00000000E+01
  3 1 18 5.00000000E+01
  3 1 19 5.00000000E+01
  3 1 20 5.00000000E+01
  3 1 21 5.00000000E+01
  3 33 1 2.80000000E+01
  3 33 2 2.80000000E+01
  3 33 3 2.80000000E+01
  3 33 4 2.80000000E+01
  3 33 5 2.80000000E+01
  3 33 6 2.80000000E+01
  3 33 7 2.80000000E+01
  3 34 8 2.80000000E+01
  3 34 9 2.80000000E+01
  3 34 10 2.80000000E+01
  3 34 11 2.80000000E+01
  3 34 12 2.80000000E+01
  3 34 13 2.80000000E+01
  3 35 14 2.80000000E+01
  3 35 15 2.80000000E+01
  3 35 16 2.80000000E+01
  3 35 17 2.80000000E+01
  3 35 18 2.80000000E+01
  3 35 19 2.80000000E+01
  3 35 20 2.80000000E+01
  3 36 21 2.80000000E+01
  3 36 22 2.80000000E+01
  3 36 23 2.80000000E+01
  4 1 4 5.00000000E+01
  4 1 5 5.00000000E+01
  4 1 6 5.00000000E+01
  4 1 7 5.00000000E+01
  4 1 8 5.00000000E+01
  4 1 9 5.00000000E+01
  4 1 10 5.00000000E+01
  4 1 11 5.00000000E+01
  4 1 12 5.00900000E+01
  4 1 13 5.01400000E+01
  4 1 14 5.01400000E+01
  4 1 15 5.00900000E+01
  4 1 16 5.00000000E+01
  4 1 17 5.00000000E+01
  4 1 18 5.00000000E+01
  4 1 19 5.00000000E+01
  4 1 20 5.00000000E+01
  4 1 21 5.00000000E+01
  4 33 1 2.80000000E+01
  4 33 2 2.80000000E+01
  4 33 3 2.80000000E+01
  4 33 4 2.80000000E+01
  4 33 5 2.80000000E+01
  4 33 6 2.80000000E+01
  4 33 7 2.80000000E+01
  4 34 8 2.80000000E+01
  4 34 9 2.80000000E+01
  4 34 10 2.80000000E+01
  4 34 11 2.80000000E+01
  4 34 12 2.80000000E+01
  4 34 13 2.80000000E+01
  4 35 14 2.80000000E+01
  4 35 15 2.80000000E+01
  4 35 16 2.80000000E+01
  4 35 17 2.80000000E+01
  4 35 18 2.80000000E+01
  4 35 19 2.80000000E+01
  4 35 20 2.80000000E+01
  4 36 21 2.80000000E+01
  4 36 22 2.80000000E+01
  4 36 23 2.80000000E+01
  5 1 4 5.00000000E+01
  5 1 5 5.00000000E+01
  5 1 6 5.00000000E+01
  5 1 7 5.00000000E+01
  5 1 8 5.00000000E+01
  5 1 9 5.00000000E+01
  5 1 10 5.00000000E+01
  5 1 11 5.00000000E+01
  5 1 12 5.00900000E+01
  5 1 13 5.01400000E+01
  5 1 14 5.01400000E+01
  5 1 15 5.00900000E+01
  5 1 16 5.00000000E+01
  5 1 17 5.00000000E+01
  5 1 18 5.00000000E+01
  5 1 19 5.00000000E+01
  5 1 20 5.00000000E+01
  5 1 21 5.00000000E+01
  5 33 1 2.80000000E+01
  5 33 2 2.80000000E+01
  5 33 3 2.80000000E+01
  5 33 4 2.80000000E+01
  5 33 5 2.80000000E+01
  5 33 6 2.80000000E+01
  5 33 7 2.80000000E+01
  5 34 8 2.80000000E+01
  5 34 9 2.80000000E+01
  5 34 10 2.80000000E+01
  5 34 11 2.80000000E+01
  5 34 12 2.80000000E+01
  5 34 13 2.80000000E+01
  5 35 14 2.80000000E+01
  5 35 15 2.80000000E+01
  5 35 16 2.80000000E+01
  5 35 17 2.80000000E+01
  5 35 18 2.80000000E+01
  5 35 19 2.80000000E+01
  5 35 20 2.80000000E+01
  5 36 21 2.80000000E+01
  5 36 22 2.80000000E+01
  5 36 23 2.80000000E+01
  6 1 4 5.00000000E+01
  6 1 5 5.00000000E+01
  6 1 6 5.00000000E+01
  6 1 7 5.00000000E+01
  6 1 8 5.00000000E+01
  6 1 9 5.00000000E+01
  6 1 10 5.00000000E+01
  6 1 11 5.00000000E+01
  6 1 12 5.00900000E+01
  6 1 13 5.01400000E+01
  6 1 14 5.01400000E+01
  6 1 15 5.00900000E+01
  6 1 16 5.00000000E+01
  6 1 17 5.00000000E+01
  6 1 18 5.00000000E+01
  6 1 19 5.00000000E+01
  6 1 20 5.00000000E+01
  6 1 21 5.00000000E+01
  6 33 1 2.80000000E+01
  6 33 2 2.80000000E+01
  6 33 3 2.80000000E+01
  6 33 4 2.80000000E+01
  6 33 5 2.80000000E+01
  6 33 6 2.80000000E+01
  6 33 7 2.80000000E+01
  6 34 8 2.80000000E+01
  6 34 9 2.80000000E+01
  6 34 10 2.80000000E+01
  6 34 11 2.80000000E+01
  6 34 12 2.80000000E+01
  6 34 13 2.80000000E+01
  6 35 14 2.80000000E+01
  6 35 15 2.80000000E+01
  6 35 16 2.80000000E+01
  6 35 17 2.80000000E+01
  6 35 18 2.80000000E+01
  6 35 19 2.80000000E+01
  6 35 20 2.80000000E+01
  6 36 21 2.80000000E+01
  6 36 22 2.80000000E+01
  6 36 23 2.80000000E+01
  7 1 4 5.00000000E+01
  7 1 5 5.00000000E+01
  7 1 6 5.00000000E+01
  7 1 7 5.00000000E+01
  7 1 8 5.00000000E+01
  7 1 9 5.00000000E+01
  7 1 10 5.00000000E+01
  7 1 11 5.00000000E+01
  7 1 12 5.00900000E+01
  7 1 13 5.01400000E+01
  7 1 14 5.01400000E+01
  7 1 15 5.00900000E+01
  7 1 16 5.00000000E+01
  7 1 17 5.00000000E+01
  7 1 18 5.00000000E+01
  7 1 19 5.00000000E+01
  7 1 20 5.00000000E+01
  7 1 21 5.00000000E+01
  7 33 1 2.80000000E+01
  7 33 2 2.80000000E+01
  7 33 3 2.80000000E+01
  7 33 4 2.80000000E+01
  7 33 5 2.80000000E+01
  7 33 6 2.80000000E+01
  7 33 7 2.80000000E+01
  7 34 8 2.80000000E+01
  7 34 9 2.80000000E+01
  7 34 10 2.80000000E+01
  7 34 11 2.80000000E+01
  7 34 12 2.80000000E+01
  7 34 13 2.80000000E+01
  7 35 14 2.80000000E+01
  7 35 15 2.80000000E+01
  7 35 16 2.80000000E+01
  7 35 17 2.80000000E+01
  7 35 18 2.80000000E+01
  7 35 19 2.80000000E+01
  7 35 20 2.80000000E+01
  7 36 21 2.80000000E+01
  7 36 22 2.80000000E+01
  7 36 23 2.80000000E+01
  8 1 4 5.00000000E+01
  8 1 5 5.00000000E+01
  8 1 6 5.00000000E+01
  8 1 7 5.00000000E+01
  8 1 8 5.00000000E+01
  8 1 9 5.00000000E+01
  8 1 10 5.00000000E+01
  8 1 11 5.00000000E+01
  8 1 12 5.00900000E+01
  8 1 13 5.01400000E+01
  8 1 14 5.01400000E+01
  8 1 15 5.00900000E+01
  8 1 16 5.00000000E+01
  8 1 17 5.00000000E+01
  8 1 18 5.00000000E+01
  8 1 19 5.00000000E+01
  8 1 20 5.00000000E+01
  8 1 21 5.00000000E+01
  8 33 1 2.80000000E+01
  8 33 2 2.80000000E+01
  8 33 3 2.80000000E+01
  8 33 4 2.80000000E+01
  8 33 5 2.80000000E+01
  8 33 6 2.80000000E+01
  8 33 7 2.80000000E+01
  8 34 8 2.80000000E+01
  8 34 9 2.80000000E+01
  8 34 10 2.80000000E+01
  8 34 11 2.80000000E+01
  8 34 12 2.80000000E+01
  8 34 13 2.80000000E+01
  8 35 14 2.80000000E+01
  8 35 15 2.80000000E+01
  8 35 16 2.80000000E+01
  8 35 17 2.80000000E+01
  8 35 18 2.80000000E+01
  8 35 19 2.80000000E+01
  8 35 20 2.80000000E+01
  8 36 21 2.80000000E+01
  8 36 22 2.80000000E+01
  8 36 23 2.80000000E+01
END period  1

