# File generated by Flopy version 3.10.0.dev2 on 05/09/2025 at 15:28:11.
BEGIN options
  NEWTON
END options

BEGIN packages
  DIS6  ex-gwf-zaidel.dis  dis
  NPF6  ex-gwf-zaidel.npf  npf
  IC6  ex-gwf-zaidel.ic  ic
  CHD6  ex-gwf-zaidel.chd  chd_0
  OC6  ex-gwf-zaidel.oc  oc
END packages

