# File generated by Flopy version 3.10.0.dev2 on 05/09/2025 at 15:28:11.
BEGIN options
END options

BEGIN dimensions
  MAXBOUND  2
END dimensions

BEGIN period  1
  1 1 1 2.30000000E+01
  1 1 200 1.00000000E+01
END period  1

