# File generated by Flopy version 3.10.0.dev2 on 05/09/2025 at 15:28:11.
BEGIN options
  HEAD  FILEOUT  ex-gwf-zaidel.hds
END options

BEGIN period  1
  SAVE  HEAD  ALL
END period  1

