# File generated by Flopy version 3.10.0.dev2 on 05/09/2025 at 15:28:11.
BEGIN options
END options

BEGIN griddata
  icelltype
    CONSTANT  1
  k
    CONSTANT  1.00000000E-04
END griddata

