# File generated by Flopy version 3.10.0.dev2 on 05/09/2025 at 15:28:11.
BEGIN options
END options

BEGIN timing
  TDIS6  ex-gwf-zaidel.tdis
END timing

BEGIN models
  gwf6  ex-gwf-zaidel.nam  ex-gwf-zaidel
END models

BEGIN exchanges
END exchanges

BEGIN solutiongroup  1
  ims6  ex-gwf-zaidel.ims  ex-gwf-zaidel
END solutiongroup  1

