# File generated by Flopy version 3.10.0.dev2 on 05/09/2025 at 15:29:25.
BEGIN options
  LENGTH_UNITS  meters
END options

BEGIN dimensions
  NLAY  1
  NROW  65
  NCOL  15
END dimensions

BEGIN griddata
  delr
    INTERNAL  FACTOR  1.0
        28.30312000      28.30312000      28.30312000      28.30312000      28.30312000      28.30312000      28.30312000      30.48028000      28.30312000      28.30312000      28.30312000      28.30312000      28.30312000      28.30312000      28.30312000
  delc
    CONSTANT     609.61000000
  top
    INTERNAL  FACTOR  1.0
        86.75181000      86.75181000      86.75181000      86.75181000      86.75181000      86.75181000      86.75181000      60.65575000      86.75181000      86.75181000      86.75181000      86.75181000      86.75181000      86.75181000      86.75181000
        86.14220438      86.14220438      86.14220438      86.14220438      86.14220438      86.14220438      86.14220438      60.04614453      86.14220438      86.14220438      86.14220438      86.14220438      86.14220438      86.14220438      86.14220438
        85.53259875      85.53259875      85.53259875      85.53259875      85.53259875      85.53259875      85.53259875      59.43653906      85.53259875      85.53259875      85.53259875      85.53259875      85.53259875      85.53259875      85.53259875
        84.92299313      84.92299313      84.92299313      84.92299313      84.92299313      84.92299313      84.92299313      58.82693359      84.92299313      84.92299313      84.92299313      84.92299313      84.92299313      84.92299313      84.92299313
        84.31338750      84.31338750      84.31338750      84.31338750      84.31338750      84.31338750      84.31338750      58.21732812      84.31338750      84.31338750      84.31338750      84.31338750      84.31338750      84.31338750      84.31338750
        83.70378188      83.70378188      83.70378188      83.70378188      83.70378188      83.70378188      83.70378188      57.60772266      83.70378188      83.70378188      83.70378188      83.70378188      83.70378188      83.70378188      83.70378188
        83.09417625      83.09417625      83.09417625      83.09417625      83.09417625      83.09417625      83.09417625      56.99811719      83.09417625      83.09417625      83.09417625      83.09417625      83.09417625      83.09417625      83.09417625
        82.48457063      82.48457063      82.48457063      82.48457063      82.48457063      82.48457063      82.48457063      56.38851172      82.48457063      82.48457063      82.48457063      82.48457063      82.48457063      82.48457063      82.48457063
        81.87496500      81.87496500      81.87496500      81.87496500      81.87496500      81.87496500      81.87496500      55.77890625      81.87496500      81.87496500      81.87496500      81.87496500      81.87496500      81.87496500      81.87496500
        81.26535938      81.26535938      81.26535938      81.26535938      81.26535938      81.26535938      81.26535938      55.16930078      81.26535938      81.26535938      81.26535938      81.26535938      81.26535938      81.26535938      81.26535938
        80.65575375      80.65575375      80.65575375      80.65575375      80.65575375      80.65575375      80.65575375      54.55969531      80.65575375      80.65575375      80.65575375      80.65575375      80.65575375      80.65575375      80.65575375
        80.04614813      80.04614813      80.04614813      80.04614813      80.04614813      80.04614813      80.04614813      53.95008984      80.04614813      80.04614813      80.04614813      80.04614813      80.04614813      80.04614813      80.04614813
        79.43654250      79.43654250      79.43654250      79.43654250      79.43654250      79.43654250      79.43654250      53.34048437      79.43654250      79.43654250      79.43654250      79.43654250      79.43654250      79.43654250      79.43654250
        78.82693688      78.82693688      78.82693688      78.82693688      78.82693688      78.82693688      78.82693688      52.73087891      78.82693688      78.82693688      78.82693688      78.82693688      78.82693688      78.82693688      78.82693688
        78.21733125      78.21733125      78.21733125      78.21733125      78.21733125      78.21733125      78.21733125      52.12127344      78.21733125      78.21733125      78.21733125      78.21733125      78.21733125      78.21733125      78.21733125
        77.60772563      77.60772563      77.60772563      77.60772563      77.60772563      77.60772563      77.60772563      51.51166797      77.60772563      77.60772563      77.60772563      77.60772563      77.60772563      77.60772563      77.60772563
        76.99812000      76.99812000      76.99812000      76.99812000      76.99812000      76.99812000      76.99812000      50.90206250      76.99812000      76.99812000      76.99812000      76.99812000      76.99812000      76.99812000      76.99812000
        76.38851437      76.38851437      76.38851437      76.38851437      76.38851437      76.38851437      76.38851437      50.29245703      76.38851437      76.38851437      76.38851437      76.38851437      76.38851437      76.38851437      76.38851437
        75.77890875      75.77890875      75.77890875      75.77890875      75.77890875      75.77890875      75.77890875      49.68285156      75.77890875      75.77890875      75.77890875      75.77890875      75.77890875      75.77890875      75.77890875
        75.16930312      75.16930312      75.16930312      75.16930312      75.16930312      75.16930312      75.16930312      49.07324609      75.16930312      75.16930312      75.16930312      75.16930312      75.16930312      75.16930312      75.16930312
        74.55969750      74.55969750      74.55969750      74.55969750      74.55969750      74.55969750      74.55969750      48.46364062      74.55969750      74.55969750      74.55969750      74.55969750      74.55969750      74.55969750      74.55969750
        73.95009187      73.95009187      73.95009187      73.95009187      73.95009187      73.95009187      73.95009187      47.85403516      73.95009187      73.95009187      73.95009187      73.95009187      73.95009187      73.95009187      73.95009187
        73.34048625      73.34048625      73.34048625      73.34048625      73.34048625      73.34048625      73.34048625      47.24442969      73.34048625      73.34048625      73.34048625      73.34048625      73.34048625      73.34048625      73.34048625
        72.73088062      72.73088062      72.73088062      72.73088062      72.73088062      72.73088062      72.73088062      46.63482422      72.73088062      72.73088062      72.73088062      72.73088062      72.73088062      72.73088062      72.73088062
        72.12127500      72.12127500      72.12127500      72.12127500      72.12127500      72.12127500      72.12127500      46.02521875      72.12127500      72.12127500      72.12127500      72.12127500      72.12127500      72.12127500      72.12127500
        71.51166938      71.51166938      71.51166938      71.51166938      71.51166938      71.51166938      71.51166938      45.41561328      71.51166938      71.51166938      71.51166938      71.51166938      71.51166938      71.51166938      71.51166938
        70.90206375      70.90206375      70.90206375      70.90206375      70.90206375      70.90206375      70.90206375      44.80600781      70.90206375      70.90206375      70.90206375      70.90206375      70.90206375      70.90206375      70.90206375
        70.29245813      70.29245813      70.29245813      70.29245813      70.29245813      70.29245813      70.29245813      44.19640234      70.29245813      70.29245813      70.29245813      70.29245813      70.29245813      70.29245813      70.29245813
        69.68285250      69.68285250      69.68285250      69.68285250      69.68285250      69.68285250      69.68285250      43.58679687      69.68285250      69.68285250      69.68285250      69.68285250      69.68285250      69.68285250      69.68285250
        69.07324688      69.07324688      69.07324688      69.07324688      69.07324688      69.07324688      69.07324688      42.97719141      69.07324688      69.07324688      69.07324688      69.07324688      69.07324688      69.07324688      69.07324688
        68.46364125      68.46364125      68.46364125      68.46364125      68.46364125      68.46364125      68.46364125      42.36758594      68.46364125      68.46364125      68.46364125      68.46364125      68.46364125      68.46364125      68.46364125
        67.85403563      67.85403563      67.85403563      67.85403563      67.85403563      67.85403563      67.85403563      41.75798047      67.85403563      67.85403563      67.85403563      67.85403563      67.85403563      67.85403563      67.85403563
        67.24443000      67.24443000      67.24443000      67.24443000      67.24443000      67.24443000      67.24443000      41.14837500      67.24443000      67.24443000      67.24443000      67.24443000      67.24443000      67.24443000      67.24443000
        66.63482438      66.63482438      66.63482438      66.63482438      66.63482438      66.63482438      66.63482438      40.53876953      66.63482438      66.63482438      66.63482438      66.63482438      66.63482438      66.63482438      66.63482438
        66.02521875      66.02521875      66.02521875      66.02521875      66.02521875      66.02521875      66.02521875      39.92916406      66.02521875      66.02521875      66.02521875      66.02521875      66.02521875      66.02521875      66.02521875
        65.41561313      65.41561313      65.41561313      65.41561313      65.41561313      65.41561313      65.41561313      39.31955859      65.41561313      65.41561313      65.41561313      65.41561313      65.41561313      65.41561313      65.41561313
        64.80600750      64.80600750      64.80600750      64.80600750      64.80600750      64.80600750      64.80600750      38.70995312      64.80600750      64.80600750      64.80600750      64.80600750      64.80600750      64.80600750      64.80600750
        64.19640188      64.19640188      64.19640188      64.19640188      64.19640188      64.19640188      64.19640188      38.10034766      64.19640188      64.19640188      64.19640188      64.19640188      64.19640188      64.19640188      64.19640188
        63.58679625      63.58679625      63.58679625      63.58679625      63.58679625      63.58679625      63.58679625      37.49074219      63.58679625      63.58679625      63.58679625      63.58679625      63.58679625      63.58679625      63.58679625
        62.97719063      62.97719063      62.97719063      62.97719063      62.97719063      62.97719063      62.97719063      36.88113672      62.97719063      62.97719063      62.97719063      62.97719063      62.97719063      62.97719063      62.97719063
        62.36758500      62.36758500      62.36758500      62.36758500      62.36758500      62.36758500      62.36758500      36.27153125      62.36758500      62.36758500      62.36758500      62.36758500      62.36758500      62.36758500      62.36758500
        61.75797938      61.75797938      61.75797938      61.75797938      61.75797938      61.75797938      61.75797938      35.66192578      61.75797938      61.75797938      61.75797938      61.75797938      61.75797938      61.75797938      61.75797938
        61.14837375      61.14837375      61.14837375      61.14837375      61.14837375      61.14837375      61.14837375      35.05232031      61.14837375      61.14837375      61.14837375      61.14837375      61.14837375      61.14837375      61.14837375
        60.53876813      60.53876813      60.53876813      60.53876813      60.53876813      60.53876813      60.53876813      34.44271484      60.53876813      60.53876813      60.53876813      60.53876813      60.53876813      60.53876813      60.53876813
        59.92916250      59.92916250      59.92916250      59.92916250      59.92916250      59.92916250      59.92916250      33.83310937      59.92916250      59.92916250      59.92916250      59.92916250      59.92916250      59.92916250      59.92916250
        59.31955688      59.31955688      59.31955688      59.31955688      59.31955688      59.31955688      59.31955688      33.22350391      59.31955688      59.31955688      59.31955688      59.31955688      59.31955688      59.31955688      59.31955688
        58.70995125      58.70995125      58.70995125      58.70995125      58.70995125      58.70995125      58.70995125      32.61389844      58.70995125      58.70995125      58.70995125      58.70995125      58.70995125      58.70995125      58.70995125
        58.10034563      58.10034563      58.10034563      58.10034563      58.10034563      58.10034563      58.10034563      32.00429297      58.10034563      58.10034563      58.10034563      58.10034563      58.10034563      58.10034563      58.10034563
        57.49074000      57.49074000      57.49074000      57.49074000      57.49074000      57.49074000      57.49074000      31.39468750      57.49074000      57.49074000      57.49074000      57.49074000      57.49074000      57.49074000      57.49074000
        56.88113438      56.88113438      56.88113438      56.88113438      56.88113438      56.88113438      56.88113438      30.78508203      56.88113438      56.88113438      56.88113438      56.88113438      56.88113438      56.88113438      56.88113438
        56.27152875      56.27152875      56.27152875      56.27152875      56.27152875      56.27152875      56.27152875      30.17547656      56.27152875      56.27152875      56.27152875      56.27152875      56.27152875      56.27152875      56.27152875
        55.66192313      55.66192313      55.66192313      55.66192313      55.66192313      55.66192313      55.66192313      29.56587109      55.66192313      55.66192313      55.66192313      55.66192313      55.66192313      55.66192313      55.66192313
        55.05231750      55.05231750      55.05231750      55.05231750      55.05231750      55.05231750      55.05231750      28.95626562      55.05231750      55.05231750      55.05231750      55.05231750      55.05231750      55.05231750      55.05231750
        54.44271188      54.44271188      54.44271188      54.44271188      54.44271188      54.44271188      54.44271188      28.34666016      54.44271188      54.44271188      54.44271188      54.44271188      54.44271188      54.44271188      54.44271188
        53.83310625      53.83310625      53.83310625      53.83310625      53.83310625      53.83310625      53.83310625      27.73705469      53.83310625      53.83310625      53.83310625      53.83310625      53.83310625      53.83310625      53.83310625
        53.22350063      53.22350063      53.22350063      53.22350063      53.22350063      53.22350063      53.22350063      27.12744922      53.22350063      53.22350063      53.22350063      53.22350063      53.22350063      53.22350063      53.22350063
        52.61389500      52.61389500      52.61389500      52.61389500      52.61389500      52.61389500      52.61389500      26.51784375      52.61389500      52.61389500      52.61389500      52.61389500      52.61389500      52.61389500      52.61389500
        52.00428938      52.00428938      52.00428938      52.00428938      52.00428938      52.00428938      52.00428938      25.90823828      52.00428938      52.00428938      52.00428938      52.00428938      52.00428938      52.00428938      52.00428938
        51.39468375      51.39468375      51.39468375      51.39468375      51.39468375      51.39468375      51.39468375      25.29863281      51.39468375      51.39468375      51.39468375      51.39468375      51.39468375      51.39468375      51.39468375
        50.78507813      50.78507813      50.78507813      50.78507813      50.78507813      50.78507813      50.78507813      24.68902734      50.78507813      50.78507813      50.78507813      50.78507813      50.78507813      50.78507813      50.78507813
        50.17547250      50.17547250      50.17547250      50.17547250      50.17547250      50.17547250      50.17547250      24.07942188      50.17547250      50.17547250      50.17547250      50.17547250      50.17547250      50.17547250      50.17547250
        49.56586688      49.56586688      49.56586688      49.56586688      49.56586688      49.56586688      49.56586688      23.46981641      49.56586688      49.56586688      49.56586688      49.56586688      49.56586688      49.56586688      49.56586688
        48.95626125      48.95626125      48.95626125      48.95626125      48.95626125      48.95626125      48.95626125      22.86021094      48.95626125      48.95626125      48.95626125      48.95626125      48.95626125      48.95626125      48.95626125
        48.34665563      48.34665563      48.34665563      48.34665563      48.34665563      48.34665563      48.34665563      22.25060547      48.34665563      48.34665563      48.34665563      48.34665563      48.34665563      48.34665563      48.34665563
        47.73705000      47.73705000      47.73705000      47.73705000      47.73705000      47.73705000      47.73705000      21.64100000      47.73705000      47.73705000      47.73705000      47.73705000      47.73705000      47.73705000      47.73705000
  botm
    CONSTANT       0.00000000
END griddata

