# File generated by Flopy version 3.10.0.dev2 on 05/09/2025 at 15:29:25.
BEGIN options
  PRINT_INPUT
END options

BEGIN continuous  FILEOUT  ex-gwf-sfr-psb.sfr.obs.csv
  inflow-ext  ext-inflow  1
  inflow  inflow  25
  outflow  outflow  25
  stage  stage  25
  depth  depth  25
END continuous  FILEOUT  ex-gwf-sfr-psb.sfr.obs.csv

