# File generated by Flopy version 3.10.0.dev2 on 05/09/2025 at 15:29:25.
BEGIN options
  STORAGE
  PRINT_INPUT
  PRINT_FLOWS
  TS6  FILEIN  ex-gwf-sfr-psb.sfr.ts
  OBS6  FILEIN  ex-gwf-sfr-psb.sfr.obs
END options

BEGIN dimensions
  NREACHES  65
END dimensions

BEGIN packagedata
  1  1 1 8     609.61000000      30.48028000       0.00100000      60.65575000       1.00000000  1.42000000E-04  0.03858  1       0.00000000  0
  2  1 2 8     609.61000000      30.48028000       0.00100000      60.04614453       1.00000000  1.42000000E-04  0.03858  2       1.00000000  0
  3  1 3 8     609.61000000      30.48028000       0.00100000      59.43653906       1.00000000  1.42000000E-04  0.03858  2       1.00000000  0
  4  1 4 8     609.61000000      30.48028000       0.00100000      58.82693359       1.00000000  1.42000000E-04  0.03858  2       1.00000000  0
  5  1 5 8     609.61000000      30.48028000       0.00100000      58.21732812       1.00000000  1.42000000E-04  0.03858  2       1.00000000  0
  6  1 6 8     609.61000000      30.48028000       0.00100000      57.60772266       1.00000000  1.42000000E-04  0.03858  2       1.00000000  0
  7  1 7 8     609.61000000      30.48028000       0.00100000      56.99811719       1.00000000  1.42000000E-04  0.03858  2       1.00000000  0
  8  1 8 8     609.61000000      30.48028000       0.00100000      56.38851172       1.00000000  1.42000000E-04  0.03858  2       1.00000000  0
  9  1 9 8     609.61000000      30.48028000       0.00100000      55.77890625       1.00000000  1.42000000E-04  0.03858  2       1.00000000  0
  10  1 10 8     609.61000000      30.48028000       0.00100000      55.16930078       1.00000000  1.42000000E-04  0.03858  2       1.00000000  0
  11  1 11 8     609.61000000      30.48028000       0.00100000      54.55969531       1.00000000  1.42000000E-04  0.03858  2       1.00000000  0
  12  1 12 8     609.61000000      30.48028000       0.00100000      53.95008984       1.00000000  1.42000000E-04  0.03858  2       1.00000000  0
  13  1 13 8     609.61000000      30.48028000       0.00100000      53.34048437       1.00000000  1.42000000E-04  0.03858  2       1.00000000  0
  14  1 14 8     609.61000000      30.48028000       0.00100000      52.73087891       1.00000000  1.42000000E-04  0.03858  2       1.00000000  0
  15  1 15 8     609.61000000      30.48028000       0.00100000      52.12127344       1.00000000  1.42000000E-04  0.03858  2       1.00000000  0
  16  1 16 8     609.61000000      30.48028000       0.00100000      51.51166797       1.00000000  1.42000000E-04  0.03858  2       1.00000000  0
  17  1 17 8     609.61000000      30.48028000       0.00100000      50.90206250       1.00000000  1.42000000E-04  0.03858  2       1.00000000  0
  18  1 18 8     609.61000000      30.48028000       0.00100000      50.29245703       1.00000000  1.42000000E-04  0.03858  2       1.00000000  0
  19  1 19 8     609.61000000      30.48028000       0.00100000      49.68285156       1.00000000  1.42000000E-04  0.03858  2       1.00000000  0
  20  1 20 8     609.61000000      30.48028000       0.00100000      49.07324609       1.00000000  1.42000000E-04  0.03858  2       1.00000000  0
  21  1 21 8     609.61000000      30.48028000       0.00100000      48.46364062       1.00000000  1.42000000E-04  0.03858  2       1.00000000  0
  22  1 22 8     609.61000000      30.48028000       0.00100000      47.85403516       1.00000000  1.42000000E-04  0.03858  2       1.00000000  0
  23  1 23 8     609.61000000      30.48028000       0.00100000      47.24442969       1.00000000  1.42000000E-04  0.03858  2       1.00000000  0
  24  1 24 8     609.61000000      30.48028000       0.00100000      46.63482422       1.00000000  1.42000000E-04  0.03858  2       1.00000000  0
  25  1 25 8     609.61000000      30.48028000       0.00100000      46.02521875       1.00000000  1.42000000E-04  0.03858  2       1.00000000  0
  26  1 26 8     609.61000000      30.48028000       0.00100000      45.41561328       1.00000000  1.42000000E-04  0.03858  2       1.00000000  0
  27  1 27 8     609.61000000      30.48028000       0.00100000      44.80600781       1.00000000  1.42000000E-04  0.03858  2       1.00000000  0
  28  1 28 8     609.61000000      30.48028000       0.00100000      44.19640234       1.00000000  1.42000000E-04  0.03858  2       1.00000000  0
  29  1 29 8     609.61000000      30.48028000       0.00100000      43.58679687       1.00000000  1.42000000E-04  0.03858  2       1.00000000  0
  30  1 30 8     609.61000000      30.48028000       0.00100000      42.97719141       1.00000000  1.42000000E-04  0.03858  2       1.00000000  0
  31  1 31 8     609.61000000      30.48028000       0.00100000      42.36758594       1.00000000  1.42000000E-04  0.03858  2       1.00000000  0
  32  1 32 8     609.61000000      30.48028000       0.00100000      41.75798047       1.00000000  1.42000000E-04  0.03858  2       1.00000000  0
  33  1 33 8     609.61000000      30.48028000       0.00100000      41.14837500       1.00000000  1.42000000E-04  0.03858  2       1.00000000  0
  34  1 34 8     609.61000000      30.48028000       0.00100000      40.53876953       1.00000000  1.42000000E-04  0.03858  2       1.00000000  0
  35  1 35 8     609.61000000      30.48028000       0.00100000      39.92916406       1.00000000  1.42000000E-04  0.03858  2       1.00000000  0
  36  1 36 8     609.61000000      30.48028000       0.00100000      39.31955859       1.00000000  1.42000000E-04  0.03858  2       1.00000000  0
  37  1 37 8     609.61000000      30.48028000       0.00100000      38.70995312       1.00000000  1.42000000E-04  0.03858  2       1.00000000  0
  38  1 38 8     609.61000000      30.48028000       0.00100000      38.10034766       1.00000000  1.42000000E-04  0.03858  2       1.00000000  0
  39  1 39 8     609.61000000      30.48028000       0.00100000      37.49074219       1.00000000  1.42000000E-04  0.03858  2       1.00000000  0
  40  1 40 8     609.61000000      30.48028000       0.00100000      36.88113672       1.00000000  1.42000000E-04  0.03858  2       1.00000000  0
  41  1 41 8     609.61000000      30.48028000       0.00100000      36.27153125       1.00000000  1.42000000E-04  0.03858  2       1.00000000  0
  42  1 42 8     609.61000000      30.48028000       0.00100000      35.66192578       1.00000000  1.42000000E-04  0.03858  2       1.00000000  0
  43  1 43 8     609.61000000      30.48028000       0.00100000      35.05232031       1.00000000  1.42000000E-04  0.03858  2       1.00000000  0
  44  1 44 8     609.61000000      30.48028000       0.00100000      34.44271484       1.00000000  1.42000000E-04  0.03858  2       1.00000000  0
  45  1 45 8     609.61000000      30.48028000       0.00100000      33.83310937       1.00000000  1.42000000E-04  0.03858  2       1.00000000  0
  46  1 46 8     609.61000000      30.48028000       0.00100000      33.22350391       1.00000000  1.42000000E-04  0.03858  2       1.00000000  0
  47  1 47 8     609.61000000      30.48028000       0.00100000      32.61389844       1.00000000  1.42000000E-04  0.03858  2       1.00000000  0
  48  1 48 8     609.61000000      30.48028000       0.00100000      32.00429297       1.00000000  1.42000000E-04  0.03858  2       1.00000000  0
  49  1 49 8     609.61000000      30.48028000       0.00100000      31.39468750       1.00000000  1.42000000E-04  0.03858  2       1.00000000  0
  50  1 50 8     609.61000000      30.48028000       0.00100000      30.78508203       1.00000000  1.42000000E-04  0.03858  2       1.00000000  0
  51  1 51 8     609.61000000      30.48028000       0.00100000      30.17547656       1.00000000  1.42000000E-04  0.03858  2       1.00000000  0
  52  1 52 8     609.61000000      30.48028000       0.00100000      29.56587109       1.00000000  1.42000000E-04  0.03858  2       1.00000000  0
  53  1 53 8     609.61000000      30.48028000       0.00100000      28.95626562       1.00000000  1.42000000E-04  0.03858  2       1.00000000  0
  54  1 54 8     609.61000000      30.48028000       0.00100000      28.34666016       1.00000000  1.42000000E-04  0.03858  2       1.00000000  0
  55  1 55 8     609.61000000      30.48028000       0.00100000      27.73705469       1.00000000  1.42000000E-04  0.03858  2       1.00000000  0
  56  1 56 8     609.61000000      30.48028000       0.00100000      27.12744922       1.00000000  1.42000000E-04  0.03858  2       1.00000000  0
  57  1 57 8     609.61000000      30.48028000       0.00100000      26.51784375       1.00000000  1.42000000E-04  0.03858  2       1.00000000  0
  58  1 58 8     609.61000000      30.48028000       0.00100000      25.90823828       1.00000000  1.42000000E-04  0.03858  2       1.00000000  0
  59  1 59 8     609.61000000      30.48028000       0.00100000      25.29863281       1.00000000  1.42000000E-04  0.03858  2       1.00000000  0
  60  1 60 8     609.61000000      30.48028000       0.00100000      24.68902734       1.00000000  1.42000000E-04  0.03858  2       1.00000000  0
  61  1 61 8     609.61000000      30.48028000       0.00100000      24.07942188       1.00000000  1.42000000E-04  0.03858  2       1.00000000  0
  62  1 62 8     609.61000000      30.48028000       0.00100000      23.46981641       1.00000000  1.42000000E-04  0.03858  2       1.00000000  0
  63  1 63 8     609.61000000      30.48028000       0.00100000      22.86021094       1.00000000  1.42000000E-04  0.03858  2       1.00000000  0
  64  1 64 8     609.61000000      30.48028000       0.00100000      22.25060547       1.00000000  1.42000000E-04  0.03858  2       1.00000000  0
  65  1 65 8     609.61000000      30.48028000       0.00100000      21.64100000       1.00000000  1.42000000E-04  0.03858  1       1.00000000  0
END packagedata

BEGIN connectiondata
  1  -2
  2  1  -3
  3  2  -4
  4  3  -5
  5  4  -6
  6  5  -7
  7  6  -8
  8  7  -9
  9  8  -10
  10  9  -11
  11  10  -12
  12  11  -13
  13  12  -14
  14  13  -15
  15  14  -16
  16  15  -17
  17  16  -18
  18  17  -19
  19  18  -20
  20  19  -21
  21  20  -22
  22  21  -23
  23  22  -24
  24  23  -25
  25  24  -26
  26  25  -27
  27  26  -28
  28  27  -29
  29  28  -30
  30  29  -31
  31  30  -32
  32  31  -33
  33  32  -34
  34  33  -35
  35  34  -36
  36  35  -37
  37  36  -38
  38  37  -39
  39  38  -40
  40  39  -41
  41  40  -42
  42  41  -43
  43  42  -44
  44  43  -45
  45  44  -46
  46  45  -47
  47  46  -48
  48  47  -49
  49  48  -50
  50  49  -51
  51  50  -52
  52  51  -53
  53  52  -54
  54  53  -55
  55  54  -56
  56  55  -57
  57  56  -58
  58  57  -59
  59  58  -60
  60  59  -61
  61  60  -62
  62  61  -63
  63  62  -64
  64  63  -65
  65  64
END connectiondata

BEGIN initialstages
  1      66.74089210
  2      66.08980990
  3      65.44049560
  4      64.79297654
  5      64.14727489
  6      63.50340772
  7      62.86138707
  8      62.22121999
  9      61.58290868
  10      60.94645053
  11      60.31183832
  12      59.67906030
  13      59.04810037
  14      58.41893826
  15      57.79154970
  16      57.16590664
  17      56.54197740
  18      55.91972699
  19      55.29911724
  20      54.68010709
  21      54.06265279
  22      53.44670821
  23      52.83222500
  24      52.21915289
  25      51.60743992
  26      50.99703268
  27      50.38787653
  28      49.77991587
  29      49.17309433
  30      48.56735499
  31      47.96264059
  32      47.35889376
  33      46.75605715
  34      46.15407367
  35      45.55288659
  36      44.95243977
  37      44.35267773
  38      43.75354586
  39      43.15499048
  40      42.55695898
  41      41.95939991
  42      41.36226309
  43      40.76549966
  44      40.16906217
  45      39.57290464
  46      38.97698261
  47      38.38125317
  48      37.78567501
  49      37.19020846
  50      36.59481546
  51      35.99945965
  52      35.40410630
  53      34.80872237
  54      34.21327648
  55      33.61773890
  56      33.02208155
  57      32.42627799
  58      31.83030337
  59      31.23413445
  60      30.63774953
  61      30.04112845
  62      29.44425255
  63      28.84710465
  64      28.24966898
  65      27.65193120
END initialstages

BEGIN period  1
  1  inflow  inflow
END period  1

