# File generated by Flopy version 3.10.0.dev2 on 05/09/2025 at 15:29:25.
BEGIN options
END options

BEGIN timing
  TDIS6  ex-gwf-sfr-psb.tdis
END timing

BEGIN models
  gwf6  ex-gwf-sfr-psb.nam  ex-gwf-sfr-psb
END models

BEGIN exchanges
END exchanges

BEGIN solutiongroup  1
  ims6  ex-gwf-sfr-psb.ims  ex-gwf-sfr-psb
END solutiongroup  1

