# File generated by Flopy version 3.10.0.dev2 on 05/09/2025 at 15:27:44.
BEGIN options
  SAVE_FLOWS
END options

BEGIN dimensions
  MAXBOUND  16
END dimensions

BEGIN period  1
  1 1 10
  1 19 10
  1 37 10
  1 55 10
  1 73 10
  1 91 10
  1 109 10
  1 127 10
  1 145 10
  1 163 10
  1 181 10
  1 199 10
  1 217 10
  1 235 10
  1 253 10
  1 271 10
END period  1

