# File generated by Flopy version 3.10.0.dev2 on 05/09/2025 at 15:27:44.
BEGIN options
  SAVE_FLOWS
END options

BEGIN griddata
  iconvert
    CONSTANT  0
  ss
    CONSTANT  1.00000000E-05
  sy
    CONSTANT       0.15000000
END griddata

BEGIN period  1
  STEADY-STATE
END period  1

