# File generated by Flopy version 3.10.0.dev2 on 05/09/2025 at 15:27:44.
BEGIN options
  SAVE_FLOWS
END options

BEGIN packages
  DISV6  ex-gwf-curvilin.disv  disv
  NPF6  ex-gwf-curvilin.npf  npf
  STO6  ex-gwf-curvilin.sto  sto
  IC6  ex-gwf-curvilin.ic  ic
  CHD6  ex-gwf-curvilin.left.chd  chd-left
  CHD6  ex-gwf-curvilin.right.chd  chd-right
  OC6  ex-gwf-curvilin.oc  oc
END packages

