# File generated by Flopy version 3.10.0.dev2 on 05/09/2025 at 15:27:38.
BEGIN options
END options

BEGIN timing
  TDIS6  ex-gwf-csub-p02b.tdis
END timing

BEGIN models
  gwf6  ex-gwf-csub-p02b.nam  ex-gwf-csub-p02b
END models

BEGIN exchanges
END exchanges

BEGIN solutiongroup  1
  ims6  ex-gwf-csub-p02b.ims  ex-gwf-csub-p02b
END solutiongroup  1

