# File generated by Flopy version 3.10.0.dev2 on 05/09/2025 at 15:29:09.
BEGIN options
  TIME_UNITS  days
END options

BEGIN dimensions
  NPER  3
END dimensions

BEGIN perioddata
  100000.00000000  1       1.00000000
   36500.00000000  10       1.50000000
  100000.00000000  1       1.00000000
END perioddata

