# File generated by Flopy version 3.10.0.dev2 on 05/09/2025 at 15:29:09.
BEGIN options
END options

BEGIN timing
  TDIS6  ex-prt-mp7-p03.tdis
END timing

BEGIN models
  gwf6  mp7-p03-gwf.nam  mp7-p03-gwf
END models

BEGIN exchanges
END exchanges

BEGIN solutiongroup  1
  ims6  ex-prt-mp7-p03.ims  mp7-p03-gwf
END solutiongroup  1

