# File generated by Flopy version 3.10.0.dev2 on 05/09/2025 at 15:29:09.
BEGIN options
  BUDGET  FILEOUT  mp7-p03-gwf.cbb
  HEAD  FILEOUT  mp7-p03-gwf.hds
END options

BEGIN period  1
  SAVE  HEAD  ALL
  SAVE  BUDGET  ALL
END period  1

