# File generated by Flopy version 3.10.0.dev2 on 05/09/2025 at 15:29:26.
BEGIN options
END options

BEGIN dimensions
  MAXBOUND  100
END dimensions

BEGIN period  1
  1 1 1 3.14107591E-02
  1 1 2 9.41083133E-02
  1 1 3 1.56434465E-01
  1 1 4 2.18143241E-01
  1 1 5 2.78991106E-01
  1 1 6 3.38737920E-01
  1 1 7 3.97147891E-01
  1 1 8 4.53990500E-01
  1 1 9 5.09041416E-01
  1 1 10 5.62083378E-01
  1 1 11 6.12907054E-01
  1 1 12 6.61311865E-01
  1 1 13 7.07106781E-01
  1 1 14 7.50111070E-01
  1 1 15 7.90155012E-01
  1 1 16 8.27080574E-01
  1 1 17 8.60742027E-01
  1 1 18 8.91006524E-01
  1 1 19 9.17754626E-01
  1 1 20 9.40880769E-01
  1 1 21 9.60293686E-01
  1 1 22 9.75916762E-01
  1 1 23 9.87688341E-01
  1 1 24 9.95561965E-01
  1 1 25 9.99506560E-01
  1 1 26 9.99506560E-01
  1 1 27 9.95561965E-01
  1 1 28 9.87688341E-01
  1 1 29 9.75916762E-01
  1 1 30 9.60293686E-01
  1 1 31 9.40880769E-01
  1 1 32 9.17754626E-01
  1 1 33 8.91006524E-01
  1 1 34 8.60742027E-01
  1 1 35 8.27080574E-01
  1 1 36 7.90155012E-01
  1 1 37 7.50111070E-01
  1 1 38 7.07106781E-01
  1 1 39 6.61311865E-01
  1 1 40 6.12907054E-01
  1 1 41 5.62083378E-01
  1 1 42 5.09041416E-01
  1 1 43 4.53990500E-01
  1 1 44 3.97147891E-01
  1 1 45 3.38737920E-01
  1 1 46 2.78991106E-01
  1 1 47 2.18143241E-01
  1 1 48 1.56434465E-01
  1 1 49 9.41083133E-02
  1 1 50 3.14107591E-02
  1 1 51 -3.14107591E-02
  1 1 52 -9.41083133E-02
  1 1 53 -1.56434465E-01
  1 1 54 -2.18143241E-01
  1 1 55 -2.78991106E-01
  1 1 56 -3.38737920E-01
  1 1 57 -3.97147891E-01
  1 1 58 -4.53990500E-01
  1 1 59 -5.09041416E-01
  1 1 60 -5.62083378E-01
  1 1 61 -6.12907054E-01
  1 1 62 -6.61311865E-01
  1 1 63 -7.07106781E-01
  1 1 64 -7.50111070E-01
  1 1 65 -7.90155012E-01
  1 1 66 -8.27080574E-01
  1 1 67 -8.60742027E-01
  1 1 68 -8.91006524E-01
  1 1 69 -9.17754626E-01
  1 1 70 -9.40880769E-01
  1 1 71 -9.60293686E-01
  1 1 72 -9.75916762E-01
  1 1 73 -9.87688341E-01
  1 1 74 -9.95561965E-01
  1 1 75 -9.99506560E-01
  1 1 76 -9.99506560E-01
  1 1 77 -9.95561965E-01
  1 1 78 -9.87688341E-01
  1 1 79 -9.75916762E-01
  1 1 80 -9.60293686E-01
  1 1 81 -9.40880769E-01
  1 1 82 -9.17754626E-01
  1 1 83 -8.91006524E-01
  1 1 84 -8.60742027E-01
  1 1 85 -8.27080574E-01
  1 1 86 -7.90155012E-01
  1 1 87 -7.50111070E-01
  1 1 88 -7.07106781E-01
  1 1 89 -6.61311865E-01
  1 1 90 -6.12907054E-01
  1 1 91 -5.62083378E-01
  1 1 92 -5.09041416E-01
  1 1 93 -4.53990500E-01
  1 1 94 -3.97147891E-01
  1 1 95 -3.38737920E-01
  1 1 96 -2.78991106E-01
  1 1 97 -2.18143241E-01
  1 1 98 -1.56434465E-01
  1 1 99 -9.41083133E-02
  1 1 100 -3.14107591E-02
END period  1

