# File generated by Flopy version 3.10.0.dev2 on 05/09/2025 at 15:27:58.
BEGIN options
END options

BEGIN dimensions
  MAXBOUND  73
END dimensions

BEGIN period  1
  1 29 47 3.81665000E+01 3.67400000E-02 3.76665000E+01
  1 29 48 3.79424000E+01 9.18500000E-02 3.74424000E+01
  1 29 49 3.76653333E+01 5.51100000E-02 3.71653333E+01
  1 30 43 3.93943333E+01 5.51100000E-02 3.88943333E+01
  1 30 44 3.91120000E+01 5.51100000E-02 3.86120000E+01
  1 30 45 3.88264000E+01 9.18500000E-02 3.83264000E+01
  1 30 46 3.85160000E+01 5.51100000E-02 3.80160000E+01
  1 30 47 3.82885000E+01 3.67400000E-02 3.77885000E+01
  1 30 49 3.75520000E+01 1.83700000E-02 3.70520000E+01
  1 31 41 3.99720000E+01 7.34800000E-02 3.94720000E+01
  1 31 42 3.97057500E+01 7.34800000E-02 3.92057500E+01
  1 31 43 3.95270000E+01 1.83700000E-02 3.90270000E+01
  1 32 38 4.07640000E+01 1.83700000E-02 4.02640000E+01
  1 32 39 4.05840000E+01 7.34800000E-02 4.00840000E+01
  1 32 40 4.03017500E+01 7.34800000E-02 3.98017500E+01
  1 32 41 4.01080000E+01 1.83700000E-02 3.96080000E+01
  1 33 36 4.13850000E+01 1.83700000E-02 4.08850000E+01
  1 33 37 4.11952500E+01 7.34800000E-02 4.06952500E+01
  1 33 38 4.09257500E+01 7.34800000E-02 4.04257500E+01
  1 34 33 4.22430000E+01 1.83700000E-02 4.17430000E+01
  1 34 34 4.20733333E+01 5.51100000E-02 4.15733333E+01
  1 34 35 4.17757500E+01 7.34800000E-02 4.12757500E+01
  1 34 36 4.15225000E+01 7.34800000E-02 4.10225000E+01
  1 35 23 4.52710000E+01 1.83700000E-02 4.47710000E+01
  1 35 24 4.51022000E+01 9.18500000E-02 4.46022000E+01
  1 35 25 4.47450000E+01 9.18500000E-02 4.42450000E+01
  1 35 26 4.44180000E+01 7.34800000E-02 4.39180000E+01
  1 35 27 4.41570000E+01 7.34800000E-02 4.36570000E+01
  1 35 30 4.31260000E+01 1.83700000E-02 4.26260000E+01
  1 35 31 4.29552000E+01 9.18500000E-02 4.24552000E+01
  1 35 32 4.26336667E+01 5.51100000E-02 4.21336667E+01
  1 35 33 4.23633333E+01 5.51100000E-02 4.18633333E+01
  1 36 22 4.56100000E+01 1.83700000E-02 4.51100000E+01
  1 36 23 4.54428000E+01 9.18500000E-02 4.49428000E+01
  1 36 27 4.40030000E+01 1.83700000E-02 4.35030000E+01
  1 36 28 4.38403333E+01 5.51100000E-02 4.33403333E+01
  1 36 29 4.35530000E+01 5.51100000E-02 4.30530000E+01
  1 36 30 4.32693333E+01 5.51100000E-02 4.27693333E+01
  1 37 22 4.57756000E+01 9.18500000E-02 4.52756000E+01
  1 38 21 4.61188000E+01 9.18500000E-02 4.56188000E+01
  1 38 22 4.59460000E+01 1.83700000E-02 4.54460000E+01
  1 39 20 4.64638000E+01 9.18500000E-02 4.59638000E+01
  1 39 21 4.62910000E+01 1.83700000E-02 4.57910000E+01
  1 40 19 4.68086000E+01 9.18500000E-02 4.63086000E+01
  1 40 20 4.66360000E+01 1.83700000E-02 4.61360000E+01
  1 41 18 4.71534000E+01 9.18500000E-02 4.66534000E+01
  1 41 19 4.69800000E+01 1.83700000E-02 4.64800000E+01
  1 42 16 4.76790000E+01 1.83700000E-02 4.71790000E+01
  1 42 17 4.75010000E+01 9.18500000E-02 4.70010000E+01
  1 42 18 4.73250000E+01 1.83700000E-02 4.68250000E+01
  1 43 15 4.80720000E+01 3.67400000E-02 4.75720000E+01
  1 43 16 4.78576000E+01 9.18500000E-02 4.73576000E+01
  1 44 14 4.84327500E+01 7.34800000E-02 4.79327500E+01
  1 44 15 4.82166667E+01 5.51100000E-02 4.77166667E+01
  1 45 2 5.19770000E+01 1.83700000E-02 5.14770000E+01
  1 45 3 5.19700000E+01 1.83700000E-02 5.14700000E+01
  1 45 12 4.89580000E+01 1.83700000E-02 4.84580000E+01
  1 45 13 4.87618000E+01 9.18500000E-02 4.82618000E+01
  1 45 14 4.85740000E+01 1.83700000E-02 4.80740000E+01
  1 46 3 5.17982000E+01 9.18500000E-02 5.12982000E+01
  1 46 4 5.16260000E+01 1.83700000E-02 5.11260000E+01
  1 46 10 4.95500000E+01 1.83700000E-02 4.90500000E+01
  1 46 11 4.93872500E+01 7.34800000E-02 4.88872500E+01
  1 46 12 4.91170000E+01 7.34800000E-02 4.86170000E+01
  1 47 4 5.14542000E+01 9.18500000E-02 5.09542000E+01
  1 47 5 5.12820000E+01 1.83700000E-02 5.07820000E+01
  1 47 9 4.99542500E+01 7.34800000E-02 4.94542500E+01
  1 47 10 4.97005000E+01 7.34800000E-02 4.92005000E+01
  1 48 5 5.11390000E+01 7.34800000E-02 5.06390000E+01
  1 48 6 5.08797500E+01 7.34800000E-02 5.03797500E+01
  1 48 7 5.05690000E+01 5.51100000E-02 5.00690000E+01
  1 48 8 5.02876667E+01 5.51100000E-02 4.97876667E+01
  1 48 9 5.00970000E+01 1.83700000E-02 4.95970000E+01
END period  1

