# File generated by Flopy version 3.10.0.dev2 on 05/09/2025 at 15:28:16.
BEGIN options
END options

BEGIN packages
  DIS6  trans.dis  dis
  MST6  trans.mst  mst
  IC6  trans.ic  ic
  ADV6  trans.adv  adv
  DSP6  trans.dsp  dsp
  SSM6  trans.ssm  ssm
  OC6  trans.oc  oc
END packages

