# File generated by Flopy version 3.10.0.dev2 on 05/09/2025 at 15:28:27.
BEGIN options
  BUDGET  FILEOUT  gwf-p04-mf6.bud
  HEAD  FILEOUT  gwf-p04-mf6.hds
  HEAD  PRINT_FORMAT  COLUMNS  10  WIDTH  15  DIGITS  6  GENERAL
END options

BEGIN period  1
  SAVE  HEAD  LAST
  SAVE  BUDGET  LAST
  PRINT  HEAD  LAST
  PRINT  BUDGET  LAST
END period  1

