# File generated by Flopy version 3.10.0.dev2 on 05/09/2025 at 15:28:32.
BEGIN options
  TIME_UNITS  seconds
END options

BEGIN dimensions
  NPER  2
END dimensions

BEGIN perioddata
  3.15360000E+07  365       1.00000000
  3.15360000E+07  365       1.00000000
END perioddata

