# File generated by Flopy version 3.10.0.dev2 on 05/09/2025 at 15:28:32.
BEGIN options
  SAVE_SPECIFIC_DISCHARGE
END options

BEGIN griddata
  icelltype
    CONSTANT  0
  k
    INTERNAL  FACTOR  1.0
    1.47400000E-04  1.47400000E-04  1.47400000E-04  1.47400000E-04  1.47400000E-04  1.47400000E-04  1.47400000E-04  1.47400000E-04  1.47400000E-04  1.47400000E-04  1.47400000E-04  1.47400000E-04  1.47400000E-04  1.47400000E-04
    1.47400000E-04  1.47400000E-04  1.47400000E-04  1.47400000E-04  1.47400000E-04  1.47400000E-04  1.47400000E-04  1.47400000E-04  1.47400000E-04  1.47400000E-04  1.47400000E-04  1.47400000E-04  1.47400000E-04  1.47400000E-04
    1.47400000E-04  1.47400000E-04  1.47400000E-04  1.47400000E-04  1.47400000E-04  1.47400000E-04  1.47400000E-04  1.47400000E-04  1.47400000E-04  1.47400000E-04  1.47400000E-04  1.47400000E-04  1.47400000E-04  1.47400000E-04
    1.47400000E-04  1.47400000E-04  1.47400000E-04  1.47400000E-04  1.47400000E-04  1.47400000E-04  1.47400000E-04  1.47400000E-04  1.47400000E-04  1.47400000E-04  1.47400000E-04  1.47400000E-04  1.47400000E-04  1.47400000E-04
    1.47400000E-04  1.47400000E-04  1.47400000E-04  1.47400000E-04  1.47400000E-04  1.47400000E-04  1.47400000E-04  1.47400000E-04  1.47400000E-04  1.47400000E-04  1.47400000E-04  1.47400000E-04  1.47400000E-04  1.47400000E-04
    1.47400000E-04  1.47400000E-07  1.47400000E-07  1.47400000E-07  1.47400000E-07  1.47400000E-07  1.47400000E-07  1.47400000E-07  1.47400000E-04  1.47400000E-04  1.47400000E-04  1.47400000E-04  1.47400000E-04  1.47400000E-04
    1.47400000E-04  1.47400000E-07  1.47400000E-07  1.47400000E-07  1.47400000E-07  1.47400000E-07  1.47400000E-07  1.47400000E-07  1.47400000E-04  1.47400000E-04  1.47400000E-04  1.47400000E-04  1.47400000E-04  1.47400000E-04
    1.47400000E-04  1.47400000E-07  1.47400000E-07  1.47400000E-07  1.47400000E-07  1.47400000E-07  1.47400000E-07  1.47400000E-07  1.47400000E-04  1.47400000E-04  1.47400000E-04  1.47400000E-04  1.47400000E-04  1.47400000E-04
    1.47400000E-04  1.47400000E-04  1.47400000E-04  1.47400000E-04  1.47400000E-04  1.47400000E-04  1.47400000E-04  1.47400000E-04  1.47400000E-04  1.47400000E-04  1.47400000E-04  1.47400000E-04  1.47400000E-04  1.47400000E-04
    1.47400000E-04  1.47400000E-04  1.47400000E-04  1.47400000E-04  1.47400000E-04  1.47400000E-04  1.47400000E-04  1.47400000E-04  1.47400000E-04  1.47400000E-04  1.47400000E-04  1.47400000E-04  1.47400000E-04  1.47400000E-04
    1.47400000E-04  1.47400000E-04  1.47400000E-04  1.47400000E-04  1.47400000E-04  1.47400000E-04  1.47400000E-04  1.47400000E-04  1.47400000E-04  1.47400000E-04  1.47400000E-04  1.47400000E-04  1.47400000E-04  1.47400000E-04
    1.47400000E-04  1.47400000E-04  1.47400000E-04  1.47400000E-04  1.47400000E-04  1.47400000E-04  1.47400000E-04  1.47400000E-04  1.47400000E-04  1.47400000E-04  1.47400000E-04  1.47400000E-04  1.47400000E-04  1.47400000E-04
    1.47400000E-04  1.47400000E-04  1.47400000E-04  1.47400000E-04  1.47400000E-04  1.47400000E-04  1.47400000E-04  1.47400000E-04  1.47400000E-04  1.47400000E-04  1.47400000E-04  1.47400000E-04  1.47400000E-04  1.47400000E-04
    1.47400000E-04  1.47400000E-04  1.47400000E-04  1.47400000E-04  1.47400000E-04  1.47400000E-04  1.47400000E-04  1.47400000E-04  1.47400000E-04  1.47400000E-04  1.47400000E-04  1.47400000E-04  1.47400000E-04  1.47400000E-04
    1.47400000E-04  1.47400000E-04  1.47400000E-04  1.47400000E-04  1.47400000E-04  1.47400000E-04  1.47400000E-04  1.47400000E-04  1.47400000E-04  1.47400000E-04  1.47400000E-04  1.47400000E-04  1.47400000E-04  1.47400000E-04
    1.47400000E-04  1.47400000E-04  1.47400000E-04  1.47400000E-04  1.47400000E-04  1.47400000E-04  1.47400000E-04  1.47400000E-04  1.47400000E-04  1.47400000E-04  1.47400000E-04  1.47400000E-04  1.47400000E-04  1.47400000E-04
    1.47400000E-04  1.47400000E-04  1.47400000E-04  1.47400000E-04  1.47400000E-04  1.47400000E-04  1.47400000E-04  1.47400000E-04  1.47400000E-04  1.47400000E-04  1.47400000E-04  1.47400000E-04  1.47400000E-04  1.47400000E-04
    1.47400000E-04  1.47400000E-04  1.47400000E-04  1.47400000E-04  1.47400000E-04  1.47400000E-04  1.47400000E-04  1.47400000E-04  1.47400000E-04  1.47400000E-04  1.47400000E-04  1.47400000E-04  1.47400000E-04  1.47400000E-04
  k33
    INTERNAL  FACTOR  1.0
    1.47400000E-04  1.47400000E-04  1.47400000E-04  1.47400000E-04  1.47400000E-04  1.47400000E-04  1.47400000E-04  1.47400000E-04  1.47400000E-04  1.47400000E-04  1.47400000E-04  1.47400000E-04  1.47400000E-04  1.47400000E-04
    1.47400000E-04  1.47400000E-04  1.47400000E-04  1.47400000E-04  1.47400000E-04  1.47400000E-04  1.47400000E-04  1.47400000E-04  1.47400000E-04  1.47400000E-04  1.47400000E-04  1.47400000E-04  1.47400000E-04  1.47400000E-04
    1.47400000E-04  1.47400000E-04  1.47400000E-04  1.47400000E-04  1.47400000E-04  1.47400000E-04  1.47400000E-04  1.47400000E-04  1.47400000E-04  1.47400000E-04  1.47400000E-04  1.47400000E-04  1.47400000E-04  1.47400000E-04
    1.47400000E-04  1.47400000E-04  1.47400000E-04  1.47400000E-04  1.47400000E-04  1.47400000E-04  1.47400000E-04  1.47400000E-04  1.47400000E-04  1.47400000E-04  1.47400000E-04  1.47400000E-04  1.47400000E-04  1.47400000E-04
    1.47400000E-04  1.47400000E-04  1.47400000E-04  1.47400000E-04  1.47400000E-04  1.47400000E-04  1.47400000E-04  1.47400000E-04  1.47400000E-04  1.47400000E-04  1.47400000E-04  1.47400000E-04  1.47400000E-04  1.47400000E-04
    1.47400000E-04  1.47400000E-07  1.47400000E-07  1.47400000E-07  1.47400000E-07  1.47400000E-07  1.47400000E-07  1.47400000E-07  1.47400000E-04  1.47400000E-04  1.47400000E-04  1.47400000E-04  1.47400000E-04  1.47400000E-04
    1.47400000E-04  1.47400000E-07  1.47400000E-07  1.47400000E-07  1.47400000E-07  1.47400000E-07  1.47400000E-07  1.47400000E-07  1.47400000E-04  1.47400000E-04  1.47400000E-04  1.47400000E-04  1.47400000E-04  1.47400000E-04
    1.47400000E-04  1.47400000E-07  1.47400000E-07  1.47400000E-07  1.47400000E-07  1.47400000E-07  1.47400000E-07  1.47400000E-07  1.47400000E-04  1.47400000E-04  1.47400000E-04  1.47400000E-04  1.47400000E-04  1.47400000E-04
    1.47400000E-04  1.47400000E-04  1.47400000E-04  1.47400000E-04  1.47400000E-04  1.47400000E-04  1.47400000E-04  1.47400000E-04  1.47400000E-04  1.47400000E-04  1.47400000E-04  1.47400000E-04  1.47400000E-04  1.47400000E-04
    1.47400000E-04  1.47400000E-04  1.47400000E-04  1.47400000E-04  1.47400000E-04  1.47400000E-04  1.47400000E-04  1.47400000E-04  1.47400000E-04  1.47400000E-04  1.47400000E-04  1.47400000E-04  1.47400000E-04  1.47400000E-04
    1.47400000E-04  1.47400000E-04  1.47400000E-04  1.47400000E-04  1.47400000E-04  1.47400000E-04  1.47400000E-04  1.47400000E-04  1.47400000E-04  1.47400000E-04  1.47400000E-04  1.47400000E-04  1.47400000E-04  1.47400000E-04
    1.47400000E-04  1.47400000E-04  1.47400000E-04  1.47400000E-04  1.47400000E-04  1.47400000E-04  1.47400000E-04  1.47400000E-04  1.47400000E-04  1.47400000E-04  1.47400000E-04  1.47400000E-04  1.47400000E-04  1.47400000E-04
    1.47400000E-04  1.47400000E-04  1.47400000E-04  1.47400000E-04  1.47400000E-04  1.47400000E-04  1.47400000E-04  1.47400000E-04  1.47400000E-04  1.47400000E-04  1.47400000E-04  1.47400000E-04  1.47400000E-04  1.47400000E-04
    1.47400000E-04  1.47400000E-04  1.47400000E-04  1.47400000E-04  1.47400000E-04  1.47400000E-04  1.47400000E-04  1.47400000E-04  1.47400000E-04  1.47400000E-04  1.47400000E-04  1.47400000E-04  1.47400000E-04  1.47400000E-04
    1.47400000E-04  1.47400000E-04  1.47400000E-04  1.47400000E-04  1.47400000E-04  1.47400000E-04  1.47400000E-04  1.47400000E-04  1.47400000E-04  1.47400000E-04  1.47400000E-04  1.47400000E-04  1.47400000E-04  1.47400000E-04
    1.47400000E-04  1.47400000E-04  1.47400000E-04  1.47400000E-04  1.47400000E-04  1.47400000E-04  1.47400000E-04  1.47400000E-04  1.47400000E-04  1.47400000E-04  1.47400000E-04  1.47400000E-04  1.47400000E-04  1.47400000E-04
    1.47400000E-04  1.47400000E-04  1.47400000E-04  1.47400000E-04  1.47400000E-04  1.47400000E-04  1.47400000E-04  1.47400000E-04  1.47400000E-04  1.47400000E-04  1.47400000E-04  1.47400000E-04  1.47400000E-04  1.47400000E-04
    1.47400000E-04  1.47400000E-04  1.47400000E-04  1.47400000E-04  1.47400000E-04  1.47400000E-04  1.47400000E-04  1.47400000E-04  1.47400000E-04  1.47400000E-04  1.47400000E-04  1.47400000E-04  1.47400000E-04  1.47400000E-04
END griddata

