# File generated by Flopy version 3.10.0.dev2 on 05/09/2025 at 15:28:35.
BEGIN options
END options

BEGIN timing
  TDIS6  trans.tdis
END timing

BEGIN models
  gwt6  trans.nam  trans
END models

BEGIN exchanges
END exchanges

BEGIN solutiongroup  1
  ims6  trans.ims  trans
END solutiongroup  1

