# File generated by Flopy version 3.10.0.dev2 on 05/09/2025 at 15:28:35.
BEGIN options
  DIGITS  10
  PRINT_INPUT
END options

BEGIN continuous  FILEOUT  trans.obs.csv
  myobs  CONCENTRATION  1 1 52
END continuous  FILEOUT  trans.obs.csv

