# File generated by Flopy version 3.10.0.dev2 on 05/09/2025 at 15:28:35.
BEGIN options
  ZERO_ORDER_DECAY
END options

BEGIN griddata
  porosity
    CONSTANT       0.37000000
  decay
    CONSTANT      -0.00200000
END griddata

