# Name file for MT3DMS, generated by Flopy version 3.10.0.dev2.
LIST              16  p01-mt.list
FTL               10  mt3d_link.ftl 
BTN               31  p01-mt.btn
ADV               32  p01-mt.adv
DSP               33  p01-mt.dsp
RCT               36  p01-mt.rct
SSM               34  p01-mt.ssm
GCG               35  p01-mt.gcg
