# MPSIM package for MODPATH 7 generated by Flopy 3.9.3
modpath_YYW1990.mpnam
modpath_YYW1990.mplst
2 2 2 2 1 0
modpath_YYW1990.mpend
modpath_YYW1990.mppth
0
1
0
2
1
1
1
PG1
1
0.0
INTERNAL
1
1
1 0
         1        51        51             0.5             0.5             0.5               0         0
