# File generated by Flopy version 3.10.0.dev2 on 05/09/2025 at 15:27:36.
BEGIN options
END options

BEGIN dimensions
  MAXBOUND  6
END dimensions

BEGIN period  1
  1 9 16 -8.20000000E-03
  1 11 13 -4.10000000E-03
  1 20 14 -3.90000000E-03
  1 26 10 -8.30000000E-04
  1 29 6 -7.20000000E-04
  1 34 12 -4.30000000E-03
END period  1

