# File generated by Flopy version 3.10.0.dev2 on 05/09/2025 at 15:27:36.
BEGIN options
END options

BEGIN dimensions
  MAXBOUND  40
END dimensions

BEGIN period  1
  1 1 15 2.01000000E+01 5.00000000E-02 2.00000000E+01
  1 2 15 1.98730769E+01 5.00000000E-02 1.97500000E+01
  1 3 15 1.96461538E+01 5.00000000E-02 1.95000000E+01
  1 4 15 1.94192308E+01 5.00000000E-02 1.92500000E+01
  1 5 15 1.91923077E+01 5.00000000E-02 1.90000000E+01
  1 6 15 1.89653846E+01 5.00000000E-02 1.87500000E+01
  1 7 15 1.87384615E+01 5.00000000E-02 1.85000000E+01
  1 8 15 1.85115385E+01 5.00000000E-02 1.82500000E+01
  1 9 15 1.82846154E+01 5.00000000E-02 1.80000000E+01
  1 10 15 1.80576923E+01 5.00000000E-02 1.77500000E+01
  1 11 15 1.78307692E+01 5.00000000E-02 1.75000000E+01
  1 12 15 1.76038462E+01 5.00000000E-02 1.72500000E+01
  1 13 15 1.73769231E+01 5.00000000E-02 1.70000000E+01
  1 14 15 1.71500000E+01 5.00000000E-02 1.67500000E+01
  1 15 15 1.69230769E+01 5.00000000E-02 1.65000000E+01
  1 16 15 1.66961538E+01 5.00000000E-02 1.62500000E+01
  1 17 15 1.64692308E+01 5.00000000E-02 1.60000000E+01
  1 18 15 1.62423077E+01 5.00000000E-02 1.57500000E+01
  1 19 15 1.60153846E+01 5.00000000E-02 1.55000000E+01
  1 20 15 1.57884615E+01 5.00000000E-02 1.52500000E+01
  1 21 15 1.55615385E+01 5.00000000E-02 1.50000000E+01
  1 22 15 1.53346154E+01 5.00000000E-02 1.47500000E+01
  1 23 15 1.51076923E+01 5.00000000E-02 1.45000000E+01
  1 24 15 1.48807692E+01 5.00000000E-02 1.42500000E+01
  1 25 15 1.46538462E+01 5.00000000E-02 1.40000000E+01
  1 26 15 1.44269231E+01 5.00000000E-02 1.37500000E+01
  1 27 15 1.42000000E+01 5.00000000E-02 1.35000000E+01
  1 28 15 1.39730769E+01 5.00000000E-02 1.32500000E+01
  1 29 15 1.37461538E+01 5.00000000E-02 1.30000000E+01
  1 30 15 1.35192308E+01 5.00000000E-02 1.27500000E+01
  1 31 15 1.32923077E+01 5.00000000E-02 1.25000000E+01
  1 32 15 1.30653846E+01 5.00000000E-02 1.22500000E+01
  1 33 15 1.28384615E+01 5.00000000E-02 1.20000000E+01
  1 34 15 1.26115385E+01 5.00000000E-02 1.17500000E+01
  1 35 15 1.23846154E+01 5.00000000E-02 1.15000000E+01
  1 36 15 1.21576923E+01 5.00000000E-02 1.12500000E+01
  1 37 15 1.19307692E+01 5.00000000E-02 1.10000000E+01
  1 38 15 1.17038462E+01 5.00000000E-02 1.07500000E+01
  1 39 15 1.14769231E+01 5.00000000E-02 1.05000000E+01
  1 40 15 1.12500000E+01 5.00000000E-02 1.02500000E+01
END period  1

