# File generated by Flopy version 3.10.0.dev2 on 05/09/2025 at 15:27:36.
BEGIN options
END options

BEGIN timing
  TDIS6  ex-gwf-capture.tdis
END timing

BEGIN models
  gwf6  ex-gwf-capture.nam  ex-gwf-capture
END models

BEGIN exchanges
END exchanges

BEGIN solutiongroup  1
  ims6  ex-gwf-capture.ims  ex-gwf-capture
END solutiongroup  1

