# RCH package for MODFLOW-2005 generated by Flopy 3.10.0.dev2
         3      1001
         1        -1 # Stress period 1
CONSTANT    3.000000E-08                           #rech_1                        
