# File generated by Flopy version 3.10.0.dev2 on 05/09/2025 at 15:27:58.
BEGIN options
END options

BEGIN dimensions
  MAXBOUND  217
END dimensions

BEGIN period  1
  1 86 142 3.79930000E+01 1.83700000E-02 3.74930000E+01
  1 86 143 3.79450000E+01 1.83700000E-02 3.74450000E+01
  1 87 140 3.82010000E+01 1.83700000E-02 3.77010000E+01
  1 87 141 3.81320000E+01 1.83700000E-02 3.76320000E+01
  1 87 142 3.80420000E+01 1.83700000E-02 3.75420000E+01
  1 87 143 3.78910000E+01 1.83700000E-02 3.73910000E+01
  1 87 144 3.78410000E+01 1.83700000E-02 3.73410000E+01
  1 87 145 3.77460000E+01 1.83700000E-02 3.72460000E+01
  1 87 146 3.76500000E+01 1.83700000E-02 3.71500000E+01
  1 87 147 3.76000000E+01 1.83700000E-02 3.71000000E+01
  1 88 135 3.86990000E+01 1.83700000E-02 3.81990000E+01
  1 88 136 3.86120000E+01 1.83700000E-02 3.81120000E+01
  1 88 137 3.85180000E+01 1.83700000E-02 3.80180000E+01
  1 88 138 3.84180000E+01 1.83700000E-02 3.79180000E+01
  1 88 139 3.83270000E+01 1.83700000E-02 3.78270000E+01
  1 88 140 3.82500000E+01 1.83700000E-02 3.77500000E+01
  1 88 147 3.75520000E+01 1.83700000E-02 3.70520000E+01
  1 89 133 3.88950000E+01 1.83700000E-02 3.83950000E+01
  1 89 134 3.88330000E+01 1.83700000E-02 3.83330000E+01
  1 89 135 3.87630000E+01 1.83700000E-02 3.82630000E+01
  1 90 127 3.94800000E+01 1.83700000E-02 3.89800000E+01
  1 90 128 3.93980000E+01 1.83700000E-02 3.88980000E+01
  1 90 129 3.93050000E+01 1.83700000E-02 3.88050000E+01
  1 90 130 3.91960000E+01 1.83700000E-02 3.86960000E+01
  1 90 131 3.91170000E+01 1.83700000E-02 3.86170000E+01
  1 90 132 3.90230000E+01 1.83700000E-02 3.85230000E+01
  1 90 133 3.89420000E+01 1.83700000E-02 3.84420000E+01
  1 91 124 3.97560000E+01 1.83700000E-02 3.92560000E+01
  1 91 125 3.96830000E+01 1.83700000E-02 3.91830000E+01
  1 91 126 3.95800000E+01 1.83700000E-02 3.90800000E+01
  1 91 127 3.95270000E+01 1.83700000E-02 3.90270000E+01
  1 92 122 3.99520000E+01 1.83700000E-02 3.94520000E+01
  1 92 123 3.98660000E+01 1.83700000E-02 3.93660000E+01
  1 92 124 3.98040000E+01 1.83700000E-02 3.93040000E+01
  1 93 121 4.00600000E+01 1.83700000E-02 3.95600000E+01
  1 93 122 4.00100000E+01 1.83700000E-02 3.95100000E+01
  1 94 119 4.02670000E+01 1.83700000E-02 3.97670000E+01
  1 94 120 4.02160000E+01 1.83700000E-02 3.97160000E+01
  1 94 121 4.01080000E+01 1.83700000E-02 3.96080000E+01
  1 95 117 4.04940000E+01 1.83700000E-02 3.99940000E+01
  1 95 118 4.04090000E+01 1.83700000E-02 3.99090000E+01
  1 95 119 4.03150000E+01 1.83700000E-02 3.98150000E+01
  1 96 114 4.07640000E+01 1.83700000E-02 4.02640000E+01
  1 96 115 4.06980000E+01 1.83700000E-02 4.01980000E+01
  1 96 116 4.06020000E+01 1.83700000E-02 4.01020000E+01
  1 96 117 4.05420000E+01 1.83700000E-02 4.00420000E+01
  1 97 112 4.09730000E+01 1.83700000E-02 4.04730000E+01
  1 97 113 4.08930000E+01 1.83700000E-02 4.03930000E+01
  1 97 114 4.08150000E+01 1.83700000E-02 4.03150000E+01
  1 98 110 4.11800000E+01 1.83700000E-02 4.06800000E+01
  1 98 111 4.10880000E+01 1.83700000E-02 4.05880000E+01
  1 98 112 4.10220000E+01 1.83700000E-02 4.05220000E+01
  1 99 108 4.13850000E+01 1.83700000E-02 4.08850000E+01
  1 99 109 4.12840000E+01 1.83700000E-02 4.07840000E+01
  1 99 110 4.12290000E+01 1.83700000E-02 4.07290000E+01
  1 100 106 4.15630000E+01 1.83700000E-02 4.10630000E+01
  1 100 107 4.14830000E+01 1.83700000E-02 4.09830000E+01
  1 100 108 4.14300000E+01 1.83700000E-02 4.09300000E+01
  1 101 104 4.17470000E+01 1.83700000E-02 4.12470000E+01
  1 101 105 4.16870000E+01 1.83700000E-02 4.11870000E+01
  1 101 106 4.16140000E+01 1.83700000E-02 4.11140000E+01
  1 102 99 4.22430000E+01 1.83700000E-02 4.17430000E+01
  1 102 100 4.21670000E+01 1.83700000E-02 4.16670000E+01
  1 102 101 4.20730000E+01 1.83700000E-02 4.15730000E+01
  1 102 102 4.19800000E+01 1.83700000E-02 4.14800000E+01
  1 102 103 4.18710000E+01 1.83700000E-02 4.13710000E+01
  1 102 104 4.17980000E+01 1.83700000E-02 4.12980000E+01
  1 103 71 4.50440000E+01 1.83700000E-02 4.45440000E+01
  1 103 72 4.49800000E+01 1.83700000E-02 4.44800000E+01
  1 103 73 4.48770000E+01 1.83700000E-02 4.43770000E+01
  1 103 74 4.47930000E+01 1.83700000E-02 4.42930000E+01
  1 103 92 4.29050000E+01 1.83700000E-02 4.24050000E+01
  1 103 93 4.28200000E+01 1.83700000E-02 4.23200000E+01
  1 103 94 4.27270000E+01 1.83700000E-02 4.22270000E+01
  1 103 95 4.26340000E+01 1.83700000E-02 4.21340000E+01
  1 103 96 4.25400000E+01 1.83700000E-02 4.20400000E+01
  1 103 97 4.24470000E+01 1.83700000E-02 4.19470000E+01
  1 103 98 4.23530000E+01 1.83700000E-02 4.18530000E+01
  1 103 99 4.22900000E+01 1.83700000E-02 4.17900000E+01
  1 104 70 4.51580000E+01 1.83700000E-02 4.46580000E+01
  1 104 71 4.51130000E+01 1.83700000E-02 4.46130000E+01
  1 104 74 4.47390000E+01 1.83700000E-02 4.42390000E+01
  1 104 75 4.46900000E+01 1.83700000E-02 4.41900000E+01
  1 104 77 4.43820000E+01 1.83700000E-02 4.38820000E+01
  1 104 78 4.43270000E+01 1.83700000E-02 4.38270000E+01
  1 104 79 4.42480000E+01 1.83700000E-02 4.37480000E+01
  1 104 91 4.30120000E+01 1.83700000E-02 4.25120000E+01
  1 104 92 4.29700000E+01 1.83700000E-02 4.24700000E+01
  1 105 69 4.52710000E+01 1.83700000E-02 4.47710000E+01
  1 105 70 4.52160000E+01 1.83700000E-02 4.47160000E+01
  1 105 75 4.46260000E+01 1.83700000E-02 4.41260000E+01
  1 105 76 4.45260000E+01 1.83700000E-02 4.40260000E+01
  1 105 77 4.44370000E+01 1.83700000E-02 4.39370000E+01
  1 105 79 4.42000000E+01 1.83700000E-02 4.37000000E+01
  1 105 80 4.41250000E+01 1.83700000E-02 4.36250000E+01
  1 105 81 4.40550000E+01 1.83700000E-02 4.35550000E+01
  1 105 90 4.31260000E+01 1.83700000E-02 4.26260000E+01
  1 105 91 4.30690000E+01 1.83700000E-02 4.25690000E+01
  1 106 68 4.53850000E+01 1.83700000E-02 4.48850000E+01
  1 106 69 4.53290000E+01 1.83700000E-02 4.48290000E+01
  1 106 81 4.40030000E+01 1.83700000E-02 4.35030000E+01
  1 106 82 4.39400000E+01 1.83700000E-02 4.34400000E+01
  1 106 83 4.38330000E+01 1.83700000E-02 4.33330000E+01
  1 106 84 4.37480000E+01 1.83700000E-02 4.32480000E+01
  1 106 85 4.36460000E+01 1.83700000E-02 4.31460000E+01
  1 106 86 4.35530000E+01 1.83700000E-02 4.30530000E+01
  1 106 87 4.34600000E+01 1.83700000E-02 4.29600000E+01
  1 106 88 4.33660000E+01 1.83700000E-02 4.28660000E+01
  1 106 89 4.32590000E+01 1.83700000E-02 4.27590000E+01
  1 106 90 4.31830000E+01 1.83700000E-02 4.26830000E+01
  1 107 67 4.54980000E+01 1.83700000E-02 4.49980000E+01
  1 107 68 4.54340000E+01 1.83700000E-02 4.49340000E+01
  1 108 66 4.56100000E+01 1.83700000E-02 4.51100000E+01
  1 108 67 4.55680000E+01 1.83700000E-02 4.50680000E+01
  1 109 66 4.56590000E+01 1.83700000E-02 4.51590000E+01
  1 110 65 4.57740000E+01 1.83700000E-02 4.52740000E+01
  1 110 66 4.57250000E+01 1.83700000E-02 4.52250000E+01
  1 111 64 4.58890000E+01 1.83700000E-02 4.53890000E+01
  1 111 65 4.58310000E+01 1.83700000E-02 4.53310000E+01
  1 112 63 4.60040000E+01 1.83700000E-02 4.55040000E+01
  1 112 64 4.59460000E+01 1.83700000E-02 4.54460000E+01
  1 113 62 4.61190000E+01 1.83700000E-02 4.56190000E+01
  1 113 63 4.60610000E+01 1.83700000E-02 4.55610000E+01
  1 114 61 4.62340000E+01 1.83700000E-02 4.57340000E+01
  1 114 62 4.61760000E+01 1.83700000E-02 4.56760000E+01
  1 115 60 4.63490000E+01 1.83700000E-02 4.58490000E+01
  1 115 61 4.62910000E+01 1.83700000E-02 4.57910000E+01
  1 116 59 4.64640000E+01 1.83700000E-02 4.59640000E+01
  1 116 60 4.64060000E+01 1.83700000E-02 4.59060000E+01
  1 117 58 4.65790000E+01 1.83700000E-02 4.60790000E+01
  1 117 59 4.65210000E+01 1.83700000E-02 4.60210000E+01
  1 118 57 4.66940000E+01 1.83700000E-02 4.61940000E+01
  1 118 58 4.66360000E+01 1.83700000E-02 4.61360000E+01
  1 119 56 4.68090000E+01 1.83700000E-02 4.63090000E+01
  1 119 57 4.67510000E+01 1.83700000E-02 4.62510000E+01
  1 120 55 4.69240000E+01 1.83700000E-02 4.64240000E+01
  1 120 56 4.68650000E+01 1.83700000E-02 4.63650000E+01
  1 121 54 4.70390000E+01 1.83700000E-02 4.65390000E+01
  1 121 55 4.69800000E+01 1.83700000E-02 4.64800000E+01
  1 122 53 4.71540000E+01 1.83700000E-02 4.66540000E+01
  1 122 54 4.70950000E+01 1.83700000E-02 4.65950000E+01
  1 123 52 4.72690000E+01 1.83700000E-02 4.67690000E+01
  1 123 53 4.72100000E+01 1.83700000E-02 4.67100000E+01
  1 124 51 4.73840000E+01 1.83700000E-02 4.68840000E+01
  1 124 52 4.73250000E+01 1.83700000E-02 4.68250000E+01
  1 125 50 4.75050000E+01 1.83700000E-02 4.70050000E+01
  1 125 51 4.74400000E+01 1.83700000E-02 4.69400000E+01
  1 126 48 4.76790000E+01 1.83700000E-02 4.71790000E+01
  1 126 49 4.76200000E+01 1.83700000E-02 4.71200000E+01
  1 126 50 4.75560000E+01 1.83700000E-02 4.70560000E+01
  1 127 47 4.78010000E+01 1.83700000E-02 4.73010000E+01
  1 127 48 4.77320000E+01 1.83700000E-02 4.72320000E+01
  1 128 46 4.79240000E+01 1.83700000E-02 4.74240000E+01
  1 128 47 4.78540000E+01 1.83700000E-02 4.73540000E+01
  1 129 44 4.81000000E+01 1.83700000E-02 4.76000000E+01
  1 129 45 4.80440000E+01 1.83700000E-02 4.75440000E+01
  1 129 46 4.79770000E+01 1.83700000E-02 4.74770000E+01
  1 130 43 4.82220000E+01 1.83700000E-02 4.77220000E+01
  1 130 44 4.81530000E+01 1.83700000E-02 4.76530000E+01
  1 131 42 4.83450000E+01 1.83700000E-02 4.78450000E+01
  1 131 43 4.82750000E+01 1.83700000E-02 4.77750000E+01
  1 132 40 4.85210000E+01 1.83700000E-02 4.80210000E+01
  1 132 41 4.84670000E+01 1.83700000E-02 4.79670000E+01
  1 132 42 4.83980000E+01 1.83700000E-02 4.78980000E+01
  1 133 39 4.86440000E+01 1.83700000E-02 4.81440000E+01
  1 133 40 4.85740000E+01 1.83700000E-02 4.80740000E+01
  1 134 38 4.87660000E+01 1.83700000E-02 4.82660000E+01
  1 134 39 4.86970000E+01 1.83700000E-02 4.81970000E+01
  1 135 6 5.19770000E+01 1.83700000E-02 5.14770000E+01
  1 135 7 5.19700000E+01 1.83700000E-02 5.14700000E+01
  1 135 36 4.89580000E+01 1.83700000E-02 4.84580000E+01
  1 135 37 4.88830000E+01 1.83700000E-02 4.83830000E+01
  1 135 38 4.88190000E+01 1.83700000E-02 4.83190000E+01
  1 136 7 5.19130000E+01 1.83700000E-02 5.14130000E+01
  1 136 8 5.18550000E+01 1.83700000E-02 5.13550000E+01
  1 136 34 4.91630000E+01 1.83700000E-02 4.86630000E+01
  1 136 35 4.90860000E+01 1.83700000E-02 4.85860000E+01
  1 136 36 4.90070000E+01 1.83700000E-02 4.85070000E+01
  1 137 8 5.17980000E+01 1.83700000E-02 5.12980000E+01
  1 137 9 5.17410000E+01 1.83700000E-02 5.12410000E+01
  1 137 32 4.93680000E+01 1.83700000E-02 4.88680000E+01
  1 137 33 4.92820000E+01 1.83700000E-02 4.87820000E+01
  1 137 34 4.92120000E+01 1.83700000E-02 4.87120000E+01
  1 138 9 5.16840000E+01 1.83700000E-02 5.11840000E+01
  1 138 10 5.16260000E+01 1.83700000E-02 5.11260000E+01
  1 138 30 4.95500000E+01 1.83700000E-02 4.90500000E+01
  1 138 31 4.94800000E+01 1.83700000E-02 4.89800000E+01
  1 138 32 4.94190000E+01 1.83700000E-02 4.89190000E+01
  1 139 10 5.15690000E+01 1.83700000E-02 5.10690000E+01
  1 139 11 5.15110000E+01 1.83700000E-02 5.10110000E+01
  1 139 29 4.96810000E+01 1.83700000E-02 4.91810000E+01
  1 139 30 4.96010000E+01 1.83700000E-02 4.91010000E+01
  1 140 11 5.14540000E+01 1.83700000E-02 5.09540000E+01
  1 140 12 5.13970000E+01 1.83700000E-02 5.08970000E+01
  1 140 27 4.98630000E+01 1.83700000E-02 4.93630000E+01
  1 140 28 4.97880000E+01 1.83700000E-02 4.92880000E+01
  1 140 29 4.97320000E+01 1.83700000E-02 4.92320000E+01
  1 141 12 5.13400000E+01 1.83700000E-02 5.08400000E+01
  1 141 13 5.12820000E+01 1.83700000E-02 5.07820000E+01
  1 141 25 5.00460000E+01 1.83700000E-02 4.95460000E+01
  1 141 26 4.99930000E+01 1.83700000E-02 4.94930000E+01
  1 141 27 4.99150000E+01 1.83700000E-02 4.94150000E+01
  1 142 13 5.12250000E+01 1.83700000E-02 5.07250000E+01
  1 142 14 5.11670000E+01 1.83700000E-02 5.06670000E+01
  1 142 16 5.09350000E+01 1.83700000E-02 5.04350000E+01
  1 142 17 5.08480000E+01 1.83700000E-02 5.03480000E+01
  1 142 18 5.07550000E+01 1.83700000E-02 5.02550000E+01
  1 142 19 5.06620000E+01 1.83700000E-02 5.01620000E+01
  1 142 20 5.05690000E+01 1.83700000E-02 5.00690000E+01
  1 142 21 5.04760000E+01 1.83700000E-02 4.99760000E+01
  1 142 22 5.03830000E+01 1.83700000E-02 4.98830000E+01
  1 142 23 5.02890000E+01 1.83700000E-02 4.97890000E+01
  1 142 24 5.01910000E+01 1.83700000E-02 4.96910000E+01
  1 142 25 5.00970000E+01 1.83700000E-02 4.95970000E+01
  1 143 14 5.11290000E+01 1.83700000E-02 5.06290000E+01
  1 143 15 5.10350000E+01 1.83700000E-02 5.05350000E+01
  1 143 16 5.09810000E+01 1.83700000E-02 5.04810000E+01
END period  1

