# File generated by Flopy version 3.10.0.dev2 on 05/09/2025 at 15:27:52.
BEGIN options
END options

BEGIN dimensions
  MAXBOUND  270
END dimensions

BEGIN period  1
  1 1 1 1.60000000E+02
  1 2 1 1.60000000E+02
  1 3 1 1.60000000E+02
  1 4 1 1.60000000E+02
  1 5 1 1.60000000E+02
  1 6 1 1.60000000E+02
  1 7 1 1.60000000E+02
  1 8 1 1.60000000E+02
  1 9 1 1.60000000E+02
  1 10 1 1.60000000E+02
  1 11 1 1.60000000E+02
  1 12 1 1.60000000E+02
  1 13 1 1.60000000E+02
  1 14 1 1.60000000E+02
  1 15 1 1.60000000E+02
  1 16 1 1.60000000E+02
  1 17 1 1.60000000E+02
  1 18 1 1.60000000E+02
  1 19 1 1.60000000E+02
  1 20 1 1.60000000E+02
  1 21 1 1.60000000E+02
  1 22 1 1.60000000E+02
  1 23 1 1.60000000E+02
  1 24 1 1.60000000E+02
  1 25 1 1.60000000E+02
  1 26 1 1.60000000E+02
  1 27 1 1.60000000E+02
  1 1 17 1.40000000E+02
  1 2 17 1.40000000E+02
  1 3 17 1.40000000E+02
  1 4 17 1.40000000E+02
  1 5 17 1.40000000E+02
  1 6 17 1.40000000E+02
  1 7 17 1.40000000E+02
  1 8 17 1.40000000E+02
  1 9 17 1.40000000E+02
  1 10 17 1.40000000E+02
  1 11 17 1.40000000E+02
  1 12 17 1.40000000E+02
  1 13 17 1.40000000E+02
  1 14 17 1.40000000E+02
  1 15 17 1.40000000E+02
  1 16 17 1.40000000E+02
  1 17 17 1.40000000E+02
  1 18 17 1.40000000E+02
  1 19 17 1.40000000E+02
  1 20 17 1.40000000E+02
  1 21 17 1.40000000E+02
  1 22 17 1.40000000E+02
  1 23 17 1.40000000E+02
  1 24 17 1.40000000E+02
  1 25 17 1.40000000E+02
  1 26 17 1.40000000E+02
  1 27 17 1.40000000E+02
  2 1 1 1.60000000E+02
  2 2 1 1.60000000E+02
  2 3 1 1.60000000E+02
  2 4 1 1.60000000E+02
  2 5 1 1.60000000E+02
  2 6 1 1.60000000E+02
  2 7 1 1.60000000E+02
  2 8 1 1.60000000E+02
  2 9 1 1.60000000E+02
  2 10 1 1.60000000E+02
  2 11 1 1.60000000E+02
  2 12 1 1.60000000E+02
  2 13 1 1.60000000E+02
  2 14 1 1.60000000E+02
  2 15 1 1.60000000E+02
  2 16 1 1.60000000E+02
  2 17 1 1.60000000E+02
  2 18 1 1.60000000E+02
  2 19 1 1.60000000E+02
  2 20 1 1.60000000E+02
  2 21 1 1.60000000E+02
  2 22 1 1.60000000E+02
  2 23 1 1.60000000E+02
  2 24 1 1.60000000E+02
  2 25 1 1.60000000E+02
  2 26 1 1.60000000E+02
  2 27 1 1.60000000E+02
  2 1 17 1.40000000E+02
  2 2 17 1.40000000E+02
  2 3 17 1.40000000E+02
  2 4 17 1.40000000E+02
  2 5 17 1.40000000E+02
  2 6 17 1.40000000E+02
  2 7 17 1.40000000E+02
  2 8 17 1.40000000E+02
  2 9 17 1.40000000E+02
  2 10 17 1.40000000E+02
  2 11 17 1.40000000E+02
  2 12 17 1.40000000E+02
  2 13 17 1.40000000E+02
  2 14 17 1.40000000E+02
  2 15 17 1.40000000E+02
  2 16 17 1.40000000E+02
  2 17 17 1.40000000E+02
  2 18 17 1.40000000E+02
  2 19 17 1.40000000E+02
  2 20 17 1.40000000E+02
  2 21 17 1.40000000E+02
  2 22 17 1.40000000E+02
  2 23 17 1.40000000E+02
  2 24 17 1.40000000E+02
  2 25 17 1.40000000E+02
  2 26 17 1.40000000E+02
  2 27 17 1.40000000E+02
  3 1 1 1.60000000E+02
  3 2 1 1.60000000E+02
  3 3 1 1.60000000E+02
  3 4 1 1.60000000E+02
  3 5 1 1.60000000E+02
  3 6 1 1.60000000E+02
  3 7 1 1.60000000E+02
  3 8 1 1.60000000E+02
  3 9 1 1.60000000E+02
  3 10 1 1.60000000E+02
  3 11 1 1.60000000E+02
  3 12 1 1.60000000E+02
  3 13 1 1.60000000E+02
  3 14 1 1.60000000E+02
  3 15 1 1.60000000E+02
  3 16 1 1.60000000E+02
  3 17 1 1.60000000E+02
  3 18 1 1.60000000E+02
  3 19 1 1.60000000E+02
  3 20 1 1.60000000E+02
  3 21 1 1.60000000E+02
  3 22 1 1.60000000E+02
  3 23 1 1.60000000E+02
  3 24 1 1.60000000E+02
  3 25 1 1.60000000E+02
  3 26 1 1.60000000E+02
  3 27 1 1.60000000E+02
  3 1 17 1.40000000E+02
  3 2 17 1.40000000E+02
  3 3 17 1.40000000E+02
  3 4 17 1.40000000E+02
  3 5 17 1.40000000E+02
  3 6 17 1.40000000E+02
  3 7 17 1.40000000E+02
  3 8 17 1.40000000E+02
  3 9 17 1.40000000E+02
  3 10 17 1.40000000E+02
  3 11 17 1.40000000E+02
  3 12 17 1.40000000E+02
  3 13 17 1.40000000E+02
  3 14 17 1.40000000E+02
  3 15 17 1.40000000E+02
  3 16 17 1.40000000E+02
  3 17 17 1.40000000E+02
  3 18 17 1.40000000E+02
  3 19 17 1.40000000E+02
  3 20 17 1.40000000E+02
  3 21 17 1.40000000E+02
  3 22 17 1.40000000E+02
  3 23 17 1.40000000E+02
  3 24 17 1.40000000E+02
  3 25 17 1.40000000E+02
  3 26 17 1.40000000E+02
  3 27 17 1.40000000E+02
  4 1 1 1.60000000E+02
  4 2 1 1.60000000E+02
  4 3 1 1.60000000E+02
  4 4 1 1.60000000E+02
  4 5 1 1.60000000E+02
  4 6 1 1.60000000E+02
  4 7 1 1.60000000E+02
  4 8 1 1.60000000E+02
  4 9 1 1.60000000E+02
  4 10 1 1.60000000E+02
  4 11 1 1.60000000E+02
  4 12 1 1.60000000E+02
  4 13 1 1.60000000E+02
  4 14 1 1.60000000E+02
  4 15 1 1.60000000E+02
  4 16 1 1.60000000E+02
  4 17 1 1.60000000E+02
  4 18 1 1.60000000E+02
  4 19 1 1.60000000E+02
  4 20 1 1.60000000E+02
  4 21 1 1.60000000E+02
  4 22 1 1.60000000E+02
  4 23 1 1.60000000E+02
  4 24 1 1.60000000E+02
  4 25 1 1.60000000E+02
  4 26 1 1.60000000E+02
  4 27 1 1.60000000E+02
  4 1 17 1.40000000E+02
  4 2 17 1.40000000E+02
  4 3 17 1.40000000E+02
  4 4 17 1.40000000E+02
  4 5 17 1.40000000E+02
  4 6 17 1.40000000E+02
  4 7 17 1.40000000E+02
  4 8 17 1.40000000E+02
  4 9 17 1.40000000E+02
  4 10 17 1.40000000E+02
  4 11 17 1.40000000E+02
  4 12 17 1.40000000E+02
  4 13 17 1.40000000E+02
  4 14 17 1.40000000E+02
  4 15 17 1.40000000E+02
  4 16 17 1.40000000E+02
  4 17 17 1.40000000E+02
  4 18 17 1.40000000E+02
  4 19 17 1.40000000E+02
  4 20 17 1.40000000E+02
  4 21 17 1.40000000E+02
  4 22 17 1.40000000E+02
  4 23 17 1.40000000E+02
  4 24 17 1.40000000E+02
  4 25 17 1.40000000E+02
  4 26 17 1.40000000E+02
  4 27 17 1.40000000E+02
  5 1 1 1.60000000E+02
  5 2 1 1.60000000E+02
  5 3 1 1.60000000E+02
  5 4 1 1.60000000E+02
  5 5 1 1.60000000E+02
  5 6 1 1.60000000E+02
  5 7 1 1.60000000E+02
  5 8 1 1.60000000E+02
  5 9 1 1.60000000E+02
  5 10 1 1.60000000E+02
  5 11 1 1.60000000E+02
  5 12 1 1.60000000E+02
  5 13 1 1.60000000E+02
  5 14 1 1.60000000E+02
  5 15 1 1.60000000E+02
  5 16 1 1.60000000E+02
  5 17 1 1.60000000E+02
  5 18 1 1.60000000E+02
  5 19 1 1.60000000E+02
  5 20 1 1.60000000E+02
  5 21 1 1.60000000E+02
  5 22 1 1.60000000E+02
  5 23 1 1.60000000E+02
  5 24 1 1.60000000E+02
  5 25 1 1.60000000E+02
  5 26 1 1.60000000E+02
  5 27 1 1.60000000E+02
  5 1 17 1.40000000E+02
  5 2 17 1.40000000E+02
  5 3 17 1.40000000E+02
  5 4 17 1.40000000E+02
  5 5 17 1.40000000E+02
  5 6 17 1.40000000E+02
  5 7 17 1.40000000E+02
  5 8 17 1.40000000E+02
  5 9 17 1.40000000E+02
  5 10 17 1.40000000E+02
  5 11 17 1.40000000E+02
  5 12 17 1.40000000E+02
  5 13 17 1.40000000E+02
  5 14 17 1.40000000E+02
  5 15 17 1.40000000E+02
  5 16 17 1.40000000E+02
  5 17 17 1.40000000E+02
  5 18 17 1.40000000E+02
  5 19 17 1.40000000E+02
  5 20 17 1.40000000E+02
  5 21 17 1.40000000E+02
  5 22 17 1.40000000E+02
  5 23 17 1.40000000E+02
  5 24 17 1.40000000E+02
  5 25 17 1.40000000E+02
  5 26 17 1.40000000E+02
  5 27 17 1.40000000E+02
END period  1

