# File generated by Flopy version 3.10.0.dev2 on 05/09/2025 at 15:27:52.
BEGIN options
  DIGITS  10
  PRINT_INPUT
END options

BEGIN continuous  FILEOUT  ex-gwf-lak-p02.lak.obs.csv
  lake1  stage  1
  lake2  stage  2
END continuous  FILEOUT  ex-gwf-lak-p02.lak.obs.csv

