# File generated by Flopy version 3.10.0.dev2 on 05/09/2025 at 15:28:02.
BEGIN options
  SAVE_FLOWS
END options

BEGIN packages
  DIS6  ex-gwf-maw-p01.dis  dis
  NPF6  ex-gwf-maw-p01.npf  npf
  STO6  ex-gwf-maw-p01.sto  sto
  IC6  ex-gwf-maw-p01.ic  ic
  MAW6  ex-gwf-maw-p01.maw  maw_0
  OC6  ex-gwf-maw-p01.oc  oc
END packages

