# File generated by Flopy version 3.10.0.dev2 on 05/09/2025 at 15:28:14.
BEGIN options
  TIME_UNITS  seconds
END options

BEGIN dimensions
  NPER  1
END dimensions

BEGIN perioddata
  1.29600000E+07  1       1.00000000
END perioddata

