# File generated by Flopy version 3.10.0.dev2 on 05/09/2025 at 15:28:14.
BEGIN options
END options

BEGIN timing
  TDIS6  gwf-hecht-mendez.tdis
END timing

BEGIN models
  gwf6  gwf-hecht-mendez.nam  gwf-hecht-mendez
END models

BEGIN exchanges
END exchanges

BEGIN solutiongroup  1
  ims6  gwf-hecht-mendez.ims  gwf-hecht-mendez
END solutiongroup  1

