# File generated by Flopy version 3.10.0.dev2 on 05/09/2025 at 15:29:03.
BEGIN options
  BUDGET  FILEOUT  flow.cbc
  HEAD  FILEOUT  flow.hds
END options

BEGIN period  1
  SAVE  HEAD  ALL
  SAVE  BUDGET  ALL
  PRINT  BUDGET  ALL
END period  1

