# File generated by Flopy version 3.10.0.dev2 on 05/09/2025 at 15:29:02.
BEGIN options
  SAVE_FLOWS
  NEWTON  UNDER_RELAXATION
END options

BEGIN packages
  DISV6  flow.disv  disv
  IC6  flow.ic  ic
  NPF6  flow.npf  npf
  RCH6  flow.rcha  rcha_0
  EVT6  flow.evta  evta_0
  WEL6  flow.wel  wel_0
  DRN6  flow.drn  drn_0
  SFR6  flow.sfr  sfr_0
  LAK6  flow.lak  lak-1
  OC6  flow.oc  oc
END packages

