# File generated by Flopy version 3.10.0.dev2 on 05/09/2025 at 15:29:03.
BEGIN options
  BOUNDNAMES
END options

BEGIN dimensions
  MAXBOUND  3
END dimensions

BEGIN period  1
  6 2596 -1.90000000E+03 P3
  6 2241 -7.60000000E+03 P1
  6 2237 -7.60000000E+03 P2
END period  1

