# File generated by Flopy version 3.10.0.dev2 on 05/09/2025 at 15:29:02.
BEGIN options
  LENGTH_UNITS  meters
END options

BEGIN dimensions
  NLAY  6
  NCPL  6343
  NVERT  13101
END dimensions

BEGIN griddata
  top
    INTERNAL  FACTOR  1.0
         3.56314421       3.56314421       3.56009650       3.56009650       3.56924057       3.58448076       3.58448076       3.58752871       3.58448076       3.58448076       3.66677737       3.80089068       3.80089068       4.03558874       4.21847057       4.21847057       4.45926476       4.59033012       4.59033012       4.60252190
         4.63909817       4.63909817       5.08715868       5.79125261       5.79125261       6.17835236       6.22407293       6.22407293       6.54106712       8.71735954       8.71735954      13.20100880      13.20100880      14.47813225      14.85303879      14.85303879      13.34426498      11.66480255      11.66480255      10.21089268
         9.00387383       9.00387383       7.82123899       7.31831455       7.31831455       7.13543272       7.03789616       7.03789616       6.36732960       6.58374023       6.58374023       6.75442934       6.54716349       6.54716349       6.15396833       6.06252718       6.06252718       6.00461483       6.32160950       6.32160950
         7.80904722       7.80904722       7.80904722       6.14482403       6.14482403       5.62056351       6.09300756       6.09300756       6.16920805       6.03204727       6.03204727       6.45267487       6.53192377       6.53192377       7.13543272       7.90048790       7.90048790       8.72650337       9.68358421       9.68358421
        10.41815853      11.53983307      11.53983307      11.98179722      11.87816429      11.87816429      12.18296719      12.87791729      12.87791729      13.39912987      13.66735649      13.66735649      13.67650032      13.67650032      13.62163544      13.59420300      13.59420300      13.61249161      13.65821266      13.65821266
        13.65821266      13.65821266      13.67954922      13.67954922      13.75270081      13.76184559      13.76184559      13.90815067      14.04531288      14.04531288      14.20380878      14.42021942      14.42021942      14.72807026      15.03287315      15.03287315      15.19137001      15.23709106      15.23709106      15.24013901
        15.31329155      15.31329155      15.57542133      15.87412930      15.87412930      15.84364796      15.17308140      15.17308140      13.86547852      12.14638996      12.14638996       9.64091110       9.64091110       7.54691696       6.25150490       6.25150490       6.17835236       6.16920805       6.16920805       5.84611750
         5.15421486       5.15421486       4.72444296       4.60861778       4.60861778       4.61166620       4.62385798       4.62385798       4.66348267       4.65129042       4.65129042       4.69396257       4.55680132       4.55680132       4.44097614       4.31295919       4.31295919       4.25199842       4.20627832       4.20627832
         4.16360569       4.16360569       3.22176528       3.22176528       3.22176528       3.22176528       3.14413660       3.14263660       3.14113660       3.14234847       3.14384851       3.14534855       3.14642057       3.14742054       3.14842051       3.15063235       3.15313236       3.15563237       3.15889222       3.16239220
         3.16589218       3.15230815       3.13180817       3.11130819       3.12565807       3.15765804       3.18965801       3.20287675       3.20437678       3.20587682       3.20766070       3.20966068       3.21166067       3.21444024       3.21794022       3.22144020       3.22494018       3.22844016       3.23194014       3.23226263
         3.22826266       3.22426270       3.22420694       3.23070691       3.23720689       3.24305164       3.24755164       3.25205163       3.25529349       3.25529349       3.25529349       3.25610394       3.25960392       3.26310390       3.26724624       3.27424628       3.28124632       3.28756886       3.28956892       3.29156898
         3.29431256       3.30481251       3.31531245       3.32598990       3.34098992       3.35598993       3.37098994       3.39243412       3.41393407       3.43543402       3.44797186       3.45997191       3.47197197       3.50053617       3.53103615       3.56153612       3.63228460       3.71028466       3.78828472       3.86348713
         3.93798710       4.01248706       4.15873428       4.32873429       4.49873430       4.55375258       4.56025256       4.56675253       4.53393907       4.48043907       4.42693907       4.40410250       4.40110250       4.39810251       4.38559664       4.36559665       4.34559666       4.32304100       4.29804106       4.27304113
         4.25915586       4.25815581       4.25715576       4.25594821       4.25444825       4.25294829       4.39019603       4.76669590       5.14319577       5.50757254       5.84607253       6.18457251       6.48757126       6.69507136       6.90257147       7.23527158       8.00427150       8.77327141       9.40773925       9.30873934
         9.20973943       9.11073952       9.16738707       9.23188715       9.29638724       9.01241739       8.69141739       8.37041739       8.56382335       8.84382339       9.12382344       9.35009872       9.56359874       9.77709875       9.87965891       9.94715876      10.01465860      10.03410981       9.06710922       8.10010918
         7.13310913       6.80250137       6.50400144       6.20550152       5.91242510       5.61992502       5.32742493       5.29169944       5.29919954       5.30669965       5.07223749       4.78023746       4.48823744       4.42039590       4.42339590       4.42639589       4.43295500       4.44095494       4.44895487       4.45164442
         4.45164442       4.45164442       4.45287599       4.45487601       4.45687603       4.46739226       4.48439226       4.50139226       4.50903730       4.50803733       4.50703736       4.43575519       4.28575521       4.13575523       4.03235838       3.99235839       3.95235841       3.88568818       3.77468818       3.66368817
         3.57447418       3.52997416       3.48547415       3.44866262       3.43166258       3.41466254       3.39499965       3.36649966       3.33799967       3.31170199       3.29520202       3.27870205       3.26199882       3.24399877       3.22599873       3.20926700       3.20576702       3.20226704       3.19904316       3.20254318
         3.20604320       3.20954322       3.20213767       3.19463768       3.18713770       3.14567572       3.10217568       3.05867563       3.05322839       3.05222838       3.05122837       3.06209103       3.07509106       3.08809109       3.08230744       3.07180742       3.06130740       3.05531506       3.05081506       3.04631507
         3.04216669       3.03816669       3.03416668       3.01444141       2.98644145       2.95844148       2.95017525       2.95467524       2.95917524       2.95892233       2.95492232       2.95092232       2.94922242       2.94972241       2.95022239       2.94956462       2.94756464       2.94556465       2.94480991       2.94580992
         2.94680994       2.93551364       2.90301364       2.87051365       2.85428398       2.87278397       2.89128397       2.90436399       2.90286395       2.90136391       2.60301566       2.60301566       2.60301566       2.60301566       3.47932366       3.39532379       3.31132383       3.26596190       3.26596190       3.26596190
         3.26761782       3.26941782       3.27053394       3.27053394       3.27053394       3.26952604       3.26832602       3.26694608       3.26514609       3.26334609       3.26291384       3.26291384       3.29114103       3.41954104       3.54794104       3.58905277       3.50445281       3.41985282       3.37416673       3.37416673
         3.37416673       3.37195886       3.36955888       3.36579114       3.35979112       3.35379110       3.35283053       3.35283053       3.35283053       3.35283053       3.35283053       3.33049067       3.30109069       3.28092383       3.29352381       3.30612379       3.31015813       3.31015813       3.31015813       3.31015813
         3.31015813       3.30332078       3.29192077       3.27571736       3.18391737       3.09211739       3.04802790       3.13982788       3.23162787       3.32480779       3.41960778       3.51440778       3.52199603       3.43019618       3.33839620       3.28882194       3.28882194       3.28882194       3.28330220       3.27730218
         3.26218387       3.23218386       3.20218385       3.19738107       3.22738117       3.25738118       3.31553179       3.40673184       3.49793189       3.50523212       3.41403207       3.32283202       3.27744554       3.28584554       3.29424554       3.29491794       3.29491794       3.29491794       3.29491794       3.29491794
         3.28836670       3.28056673       3.31576992       3.45136991       3.58696990       3.61953294       3.61953294       3.61953294       3.61953294       3.61953294       3.71457081       3.85437078       4.06445722       4.70705715       5.34965709       5.60684580       5.24204584       4.87724588       4.68024546       4.68024546
         4.68024546       4.66865413       4.65605419       4.64824136       4.64824136       4.64824136       4.68351745       4.72551751       4.75168363       4.74088356       4.73008348       4.72748998       4.72748998       4.78869288       5.06709289       5.34549290       5.43463245       4.77343247       4.11223248       3.75351428
         3.74991424       3.74631420       3.74602560       3.74962564       3.75322568       3.90723812       4.23783809       4.56843806       4.59490136       4.31650135       4.03810134       3.88775933       3.88775933       3.88775933       3.79944366       3.70344369       3.59627370       3.47087366       3.34547362       3.32539821
         3.32539821       3.29265068       3.18345071       3.07425074       3.04802773       3.15722755       3.26642752       3.46311510       3.76251509       4.06191508       4.08588092       3.96528099       3.84468105       3.77955449       3.77955449       3.77955449       3.70890190       3.63210187       3.58356881       3.58116883
         3.57876885       3.57838431       3.58078429       3.58318427       3.75559170       4.12759169       4.49959168       4.52936904       4.40756905       4.28576905       4.14327004       3.97647007       3.80967011       3.79631865       3.79631865       3.79631865       3.79631865       3.79631865       3.82403559       3.85703552
         3.86970321       3.83490324       3.80010327       3.79174650       3.79174650       3.79174650       3.79174650       3.79174650       3.77094412       3.74034412       3.71309917       3.70649916       3.69989916       3.69725764       3.69725764       3.69998210       3.74558215       3.79118220       3.81308295       3.59588288
         3.37868281       3.25890587       3.25350588       3.24810589       3.24767352      11.21628116      11.22348873      11.21224661      11.18289640      11.13632988      11.07396188      10.99768742      10.90982414      10.81304171      10.71028082      10.59285574      10.47614244      10.36368720      10.25890691      10.15315259
        10.04963746       9.96333953       9.89688091       9.85228092       9.85972007       9.89014703       9.94263723      10.01559577      10.10680583      10.21349606      10.33242473      10.45997823      10.59228094      10.67287107      10.75174176      10.82649656      10.89486408      10.97177643      11.05489655      11.12468956
        11.17903486       3.55609649       3.56935451       3.58233123       3.59463236       3.60588413       3.60563757       3.59390023       3.58113579       3.56773207       3.55409635       3.55453482       3.55514228       3.55590027       3.55678576       3.55752532       3.55809648       3.55872840       3.55940190       3.56009650
         3.56356944       3.56693687       3.57009645       3.57295219       3.57393824       3.57302463       3.57171821       3.57005867       3.56809643       3.56901678       3.56966610       3.57002464       3.57008152       3.56860244       3.56563234       3.56249403       3.55928288       3.37427124       3.37533470       3.37849276
         3.38364947       3.39064815       3.40716460       3.43269692       3.45858092       3.48403014       3.50827130       3.51667604       3.52288079       3.52669704       3.52800883       3.53491118       3.54719444       3.55635043       3.56210095       3.56427128       3.55515502       3.54266959       3.52719439       3.50919961
         3.48923202       3.46789832       3.44584672       3.42374726       3.40227142       3.39492165       3.38907135       3.38489828       3.38252922       3.37907800       3.37464949       3.37233641       3.37220904       1.61240745       1.61490664       1.61740666       1.61990669       1.62240672       1.62490675       1.62740678
         1.62719493       1.62669490       1.62619488       1.62569485       1.62519483       1.62469480       1.61894355       1.61194357       1.60494358       1.59794360       1.59094362       1.58394364       1.58797703       1.59647703       1.60497703       1.61347703       1.62197703       1.63047702       1.63836125       1.64586126
         1.65336127       1.66086127       1.66836128       1.67586129       1.67530562       1.66730560       1.65930559       1.65130558       1.64330557       1.63530555       1.62751738       1.62001737       1.61251736       1.60501736       1.59751735       1.59001734       1.58464680       1.58364678       1.58264677       1.58164676
         1.58064675       1.57964674       1.58165693       1.59365695       1.60565697       1.61765699       1.62965701       1.64165703       1.65054058       1.63954058       1.62854057       1.61754056       1.60654055       1.59554055       1.58499413       1.58549414       1.58599414       1.58649415       1.58699415       1.58749416
         1.58799416       1.58707909       1.58607910       1.58507911       1.58407912       1.58307912       1.58207913       1.58573945       1.59023944       1.59473944       1.59923943       1.60373942       1.60823941       1.60222155       1.59272156       1.58322157       1.57372158       1.56422159       1.55472160       1.55275664
         1.55475665       1.55675665       1.55875665       1.56075665       1.56275666       1.56531582       1.56831582       1.57131581       1.57431581       1.57731580       1.58031580       1.58678911       1.59728912       1.60778912       1.61828912       1.62878912       1.63928912       1.64593506       1.64593506       1.64593506
         1.64593506       3.56924057       4.46440905       4.54444957       4.08939349       4.02156096       4.44642136       3.25919350       3.23597017       4.63284957       3.70666516       3.74794562       3.47303617       3.52224272       3.45659209       3.51418272       4.49688904       4.05372094       4.52066136       3.25343351
         3.74698561       3.49751617       3.48091211       4.51312904       4.06980093       4.55778136       3.25055352       3.74650561       3.50975617       3.49307211       3.24911352       3.24839352       4.31359169       4.61406703       3.91221509       4.12983355       4.40313808       4.62153007       3.74811422       3.68046208
         3.46700778       3.52283603       3.45233187       3.50798116       3.25080589       3.22817902       4.40659169       4.58879191       3.98706509       4.12000033       4.48578807       4.63387257       3.74721421       3.70599153       3.49070778       3.52272218       3.47513188       3.51215126       3.24945589       3.23645703
         4.40570270       3.99850599       4.46685711       3.80249404       3.48288562       3.46750956       3.26565563       3.70046194       3.23339826       4.45309168       4.47664160       4.60880860       4.02449008       4.02997526       4.14065817       4.52711306       4.56814137       4.70363975       3.74676421       3.68529841
         3.50255778       3.51697478       3.52334876       3.48653188       3.50050911       3.52841358       3.24878089       3.23050480       3.57966429       3.51863819       3.17458103       3.21338117       3.62799750       3.70595734       3.21332484       3.23730947       4.72991497       4.66020869       4.21222565       4.16378275
         4.79561504       4.81471364       3.52491333       3.52425108       3.54560197       3.55400004       3.57902430       3.20538116       3.60915963       3.20596469       3.59672321       3.66209947       3.20193734       3.22550424       3.10626757      10.66267879       9.41522924       4.31777465       3.92776026       4.38868152
         3.80344577       3.46046430       3.44593949       3.26696152       3.04307651       3.57996884       3.47886448       3.21718385       3.15940307       3.07714757       9.72466926       4.15825827       4.31129872       3.80513589       3.92677508       4.23832130       4.34007570       3.84155824       3.83118102       3.41621400
         3.44275183       3.40332349       3.42831608       3.27872285       3.27694758       3.66391529       3.51751052       3.24603432       3.18338288       3.13715598       3.04252955       9.40063809       9.76849430       3.05973670      10.00235413       4.81566212       4.24558536       4.75374249       3.52529955       3.53145469
         3.57936885       3.48606901       3.50933423       3.20968385       3.17407939       3.16125702       9.12461540       9.36610846       8.78452751       8.58360920       8.70276012       5.08199246       5.81303793       3.54393281       3.60698015      13.65821266       3.39911329       3.52045234       3.13898508       3.19524979
         3.04365691       3.10084275      10.54202521       9.41775000       8.94783397       8.18688547      13.65821266       3.46446254       3.18963567       3.13865185      10.45414475       8.49686584      13.65821266       5.41228582       5.76916814       4.36598783       3.91397941       4.51000083       3.56389347       3.50560707
         3.48978847       3.19624257       3.57507453       9.98090868       3.12885072       3.85469453       3.57878388       3.94172799       3.91581278       3.32762746       3.31795728       3.30527920       3.03708517       3.37078868       3.10454424       3.35196217       3.09293267       8.37039841       7.41561352       7.81759501
         4.55954514       4.06680321       4.73107012       3.52242648       3.53904333      11.07154321       9.41470637       8.02240135       7.70891779       9.19466497       3.69724291       4.01975035       3.09698789       3.14129305       3.19245731       3.66520292       3.26026863       4.62444375       4.11105201       4.51649196
         3.49033639       3.47158164       4.69740013       3.41797118       3.62899626      13.65821266       4.79556137       5.86258829       5.16511534       3.55337386       3.19100272       3.42956253       3.05936001       3.21442423       3.02297104       3.03042351       4.94018495       4.33591594       5.27253535       3.52908970
         3.65504472      11.79439986       3.58085384       3.71605365       3.19142313       3.02847879       3.17795055       3.72298844       3.70703567       3.28807902       3.29960059       4.60344209       4.06525549       4.36128305       3.43705320       3.41784999       3.62751709      13.65821266       5.86091637       5.43341439
         3.32248953       3.12261389       3.47439307       3.02383874       4.61512607       4.05993010       4.91665949       3.52328772       3.58410298       3.79899037       3.06551775       4.87523657       4.25608874       4.64685661       3.52462947       3.50235946      13.65821266       3.36601797       3.13196279       3.57118082
         3.38442882       3.41276425       3.54876589       3.36492960       3.35153845       3.60007188       3.55312372       3.37966713       3.35325482       3.47969116       2.60301566       3.06936383       3.56129434       3.56237160       3.57855474       3.55640479       3.57301725       3.61271587       3.55694310       3.55252243
         9.64451535      10.46446734      10.74209204      11.23666994      11.32814728      10.21669497      10.80675609       5.20629289       5.72275548       3.48374104       3.52662726       3.98048349       3.68799708       3.96459686       3.99323501       3.32641339       3.31556682       3.32682035       6.51631023       3.29916122
         5.01032891       4.41745095       5.25279179       3.53018294       3.64546968       9.84332428      11.29051238       3.10542751       3.67717498       6.27730081       6.02194892       3.18671137       4.00861177       3.13635631       3.51083202       3.17368835       3.57286934       3.57138563       3.57106339       3.38043780
         3.40609687       3.45296381       3.41834799       3.40092353       3.39777267       3.55738542       3.49684080       3.51646937       3.36857612       3.35635283       3.58523896       3.58464371       3.57107312       3.54259248       3.37451822       3.41454871       3.36202002       3.53362911       3.50762197       1.64593506
         1.64593506       3.55851986       3.55980851       3.56437255       3.56932961       3.55967241       3.56639336       3.57405117       3.57617894       3.55789007       3.55730552       3.55551307       3.57225462       3.56529360       3.56866981       3.59475817       3.61207475       3.56330680       3.55367595       3.56109502
         9.77838811       9.63439509       9.68789165      10.23337936      10.33158970      10.54152492      10.78487110      10.63617894      10.93648954      10.82733598      11.40711458      11.27028660      11.10113089      11.16596127      11.21324069      11.32610286      10.37649538       9.94168415      10.91563932      10.65937067
         5.02381374       4.39948262       5.10273581       3.52927614       3.60795541      10.13657582       9.81406293       3.75447024       6.71886387       6.07120180       3.94961091       3.03432437       3.44809101       3.57297531       3.37590717       3.43296491       3.48580227       3.49635714       3.39849762       3.38557985
         3.39780715       3.36382897       3.35950466       3.56914700       3.57256020       3.54577183       3.53437941       3.36884993       3.44590337       1.64593506       1.64593506       3.55725935       3.55870003       3.57095857       3.56873445       3.57027522       3.56647378       3.55886572       3.57014489       3.57644104
         3.56106357       3.57888778       3.59358129       3.62202880       3.55463655       9.88857125      10.08725553      10.64062281      10.68886394      10.87212694      11.01732289      10.50869667      11.31008027      10.98447762      11.33419791      10.51868461      10.12254184      11.01901403       5.12865726       4.43926051
         5.04528849       3.52970623       3.58912025      10.03512663       9.77312142       3.27452326       3.46052325       3.52630035       3.51253954       3.51103885       3.44521472       3.50082669       3.39058093       3.39186388       3.56998665       3.55613722       3.58363441       3.56283277       3.56227655       3.56688501
         3.56818054       3.57720639      10.19563810      10.04378380      10.54846517      10.95350678      10.80158433      10.97419510      11.11680696      10.35475893       5.54129512       4.75033734       5.77416339       3.53783911       3.74988373       3.53999904       3.51103250       3.53959481       3.46668887       3.40699998
         3.56077457       3.59008371       3.56075321       3.56755072      10.04728842      10.31065616      10.96417884      11.05566169       3.51319787       9.47151140       3.49913573       4.06466168       3.67644785       4.23476673       3.58948564       3.42570126       3.41287714       3.20725761       8.63524841       7.28080498
         8.67196462       4.66416724       4.05858544       4.21366503       3.38275513       3.36177831       2.60301566       6.72019950       3.39149534       3.42912806       3.73983849       6.99202669       3.18883330       3.07984503       3.55944807      13.15571257       3.57623051       3.35625018       3.42654998       3.40795385
         3.34045199       3.33027648       3.62190596       3.61815871       3.56629104       3.34215839       3.43315004       3.56484643       3.55919870       3.57172841       3.59153375       3.55250701       9.61229575      10.60827091      10.53529945      11.50640843      11.15003632      11.55733085      10.42771494      11.10236241
         9.45607014       3.31470388       3.47688924       3.39744491       3.56750309       3.57738962      10.85548100       3.51539480       3.40548010       3.55622688       3.58614980       3.55858326       3.56656299      10.14372937      10.48268014      10.85620063      11.01038343       3.49650688       3.32539821       4.92026452
         4.25063739       5.00872934       4.53522979       3.48360998       3.56912360       3.46001367       2.60301566       6.01119338      11.35117218       3.45520888       3.41080352       3.59274857       3.35756378       3.56703428       3.56084619       3.57377063       3.57524957       3.55403174      10.68874994      10.37047578
        10.56478675       3.03780096       3.40626542       3.56446246       3.58780662      10.89121377       3.48003822       3.42382116       3.55787682       3.56474675      10.25503516      10.72429496      10.92408474       3.19738102       5.21653481       4.46332491       3.52968008       3.42885381      10.52829437       3.03232809
         3.41474325       3.56523446      10.74450367       3.48746715       3.41783297       3.56605801       3.56416324      10.39891846      10.79220582      10.86822377       3.19738102       3.19738102       3.51742411       3.09606848       3.09990514       3.11366501       3.03203567       3.11613549       3.17520614       3.18507657
         3.17885369       3.18904792       3.20742995       3.21969487       3.23804627       3.25953986       3.32318414       3.37863119       3.59682969       3.47094544       3.74348424       4.42348428       4.28378225       4.46407566       4.49921591       4.30298909       4.26906385       4.23472389       4.28158773       4.22826637
         4.98280118       7.51071959      11.00775919       6.51901219       1.88767499       1.84595167       1.85628304       1.88282421       1.87388016       1.91188012       1.95051148       1.94710115       1.96014945       1.94244800       2.03785803       2.06207275       2.00903235       2.01303240       2.05863013       2.15279551
         2.21821377       2.18851941       2.42077104       2.39048765       2.41430404       2.39796628       2.39567814       4.54410542       4.50378201       6.65091822       2.37931430       3.30150485       3.12831460       3.13378562       3.05444910       3.03823337       3.46368012       3.34968738       3.19967859       4.09100566
         3.17370185       3.36342809      11.88536773       3.00912103       3.79020921       3.35692456       3.06936383       3.57516457       3.55390087       3.52546287       1.64593506       1.64593506       3.55637127       3.57632444       3.57153965       9.37273105      10.89798458      11.41306741       3.57974820       1.64593506
         1.64593506       3.58191222       3.56519965       3.64276008       9.95726690       9.76814933       5.40127675       4.68664859       5.87136176       3.53722113       3.78049501       6.63811581       7.46811623       8.63116695       3.09547350       3.78183411       4.01530052       3.52135767       3.36335122       3.35539985
         3.19155161       6.95738305       8.58465707       2.60301566       3.43860902       3.21537557       3.03375664       6.83210441       3.57274368       3.36910234       3.25780383       3.27180375       3.39279712       3.19918059       3.28416519       3.35333528       3.33852656       3.29167735       3.29481876       3.61687451
         3.61476758       3.56363309       3.44018415       3.34442794       3.30016577       3.30315703       3.40138248       3.31940534       3.55978015       3.19681814       3.17003015       3.56673260       3.12083401       3.60523416       3.55220194       3.55184424       3.34163497       9.58960601      10.66271912      11.38798534
        11.22283858      11.46211913      10.29638630      10.94943985       9.62578547       3.55749130       3.56652850       3.47498630       3.09505877       4.59299077       3.46387062       5.44885793       6.01074861       9.93968326       3.55914440       3.07495452       5.68056402       5.45824972       4.79654323       4.57588081
         3.54598998       3.55362199       3.48668217      10.60871061       3.19738102       3.32844639       2.03242467       3.09496218       3.11235722       3.11443907       2.00270136       3.10490515       3.12028797       3.11617928       1.99939220       3.12761416       3.12804785       1.96146841       3.05421413       3.08661420
         2.03469802       3.16967226       3.18166871       3.11821407       2.05523855       3.19070261       3.18670264       2.04082824       3.20308527       3.19608531       2.04318154       3.17085375       3.19442358       3.20242351       2.04803875       3.21511775       3.20211780       2.06283515       3.22565017       3.22465831
         2.09830596       3.22908722       3.23905320       3.23205324       2.07297437       3.25927878       3.25527866       2.07130492       3.28053974       3.28927225       3.26827237       3.32725914       2.07642550       3.36695329       3.39531109       2.10642553       3.41931120       3.52618395       3.53194692       3.61409563